
---------- Begin Simulation Statistics ----------
simSeconds                                   0.008342                       # Number of seconds simulated (Second)
simTicks                                   8342469500                       # Number of ticks simulated (Tick)
finalTick                                  8342469500                       # Number of ticks from beginning of simulation (restored from checkpoints and never reset) (Tick)
simFreq                                  1000000000000                       # The number of ticks per simulated second ((Tick/Second))
hostSeconds                                     24.50                       # Real time elapsed on the host (Second)
hostTickRate                                340572205                       # The number of ticks simulated per host second (ticks/s) ((Tick/Second))
hostMemory                                    8727664                       # Number of bytes of host memory used (Byte)
simInsts                                     10000001                       # Number of instructions simulated (Count)
simOps                                       10513116                       # Number of ops (including micro ops) simulated (Count)
hostInstRate                                   408225                       # Simulator instruction rate (inst/s) ((Count/Second))
hostOpRate                                     429171                       # Simulator op (including micro ops) rate (op/s) ((Count/Second))
system.clk_domain.clock                          1000                       # Clock period in ticks (Tick)
system.cpu.numCycles                         16684939                       # Number of cpu cycles simulated (Cycle)
system.cpu.numWorkItemsStarted                      0                       # Number of work items this cpu started (Count)
system.cpu.numWorkItemsCompleted                    0                       # Number of work items this cpu completed (Count)
system.cpu.numInsts                          10000001                       # Number of instructions committed (Count)
system.cpu.numOps                            10513116                       # Number of ops (including micro ops) committed (Count)
system.cpu.numDiscardedOps                      80730                       # Number of ops (including micro ops) which were discarded before commit (Count)
system.cpu.numFetchSuspends                         0                       # Number of times Execute suspended instruction fetching (Count)
system.cpu.cpi                               1.668494                       # CPI: cycles per instruction ((Cycle/Count))
system.cpu.ipc                               0.599343                       # IPC: instructions per cycle ((Count/Cycle))
system.cpu.committedInstType_0::No_OpClass            9      0.00%      0.00% # Class of committed instruction (Count)
system.cpu.committedInstType_0::IntAlu        4973237     47.31%     47.31% # Class of committed instruction (Count)
system.cpu.committedInstType_0::IntMult            63      0.00%     47.31% # Class of committed instruction (Count)
system.cpu.committedInstType_0::IntDiv              3      0.00%     47.31% # Class of committed instruction (Count)
system.cpu.committedInstType_0::FloatAdd            0      0.00%     47.31% # Class of committed instruction (Count)
system.cpu.committedInstType_0::FloatCmp            0      0.00%     47.31% # Class of committed instruction (Count)
system.cpu.committedInstType_0::FloatCvt            0      0.00%     47.31% # Class of committed instruction (Count)
system.cpu.committedInstType_0::FloatMult            0      0.00%     47.31% # Class of committed instruction (Count)
system.cpu.committedInstType_0::FloatMultAcc            0      0.00%     47.31% # Class of committed instruction (Count)
system.cpu.committedInstType_0::FloatDiv            0      0.00%     47.31% # Class of committed instruction (Count)
system.cpu.committedInstType_0::FloatMisc            0      0.00%     47.31% # Class of committed instruction (Count)
system.cpu.committedInstType_0::FloatSqrt            0      0.00%     47.31% # Class of committed instruction (Count)
system.cpu.committedInstType_0::SimdAdd            29      0.00%     47.31% # Class of committed instruction (Count)
system.cpu.committedInstType_0::SimdAddAcc            0      0.00%     47.31% # Class of committed instruction (Count)
system.cpu.committedInstType_0::SimdAlu            36      0.00%     47.31% # Class of committed instruction (Count)
system.cpu.committedInstType_0::SimdCmp            36      0.00%     47.31% # Class of committed instruction (Count)
system.cpu.committedInstType_0::SimdCvt             0      0.00%     47.31% # Class of committed instruction (Count)
system.cpu.committedInstType_0::SimdMisc           26      0.00%     47.31% # Class of committed instruction (Count)
system.cpu.committedInstType_0::SimdMult            0      0.00%     47.31% # Class of committed instruction (Count)
system.cpu.committedInstType_0::SimdMultAcc            0      0.00%     47.31% # Class of committed instruction (Count)
system.cpu.committedInstType_0::SimdShift            0      0.00%     47.31% # Class of committed instruction (Count)
system.cpu.committedInstType_0::SimdShiftAcc            0      0.00%     47.31% # Class of committed instruction (Count)
system.cpu.committedInstType_0::SimdDiv             0      0.00%     47.31% # Class of committed instruction (Count)
system.cpu.committedInstType_0::SimdSqrt            0      0.00%     47.31% # Class of committed instruction (Count)
system.cpu.committedInstType_0::SimdFloatAdd            0      0.00%     47.31% # Class of committed instruction (Count)
system.cpu.committedInstType_0::SimdFloatAlu            0      0.00%     47.31% # Class of committed instruction (Count)
system.cpu.committedInstType_0::SimdFloatCmp            0      0.00%     47.31% # Class of committed instruction (Count)
system.cpu.committedInstType_0::SimdFloatCvt            0      0.00%     47.31% # Class of committed instruction (Count)
system.cpu.committedInstType_0::SimdFloatDiv            0      0.00%     47.31% # Class of committed instruction (Count)
system.cpu.committedInstType_0::SimdFloatMisc            0      0.00%     47.31% # Class of committed instruction (Count)
system.cpu.committedInstType_0::SimdFloatMult            0      0.00%     47.31% # Class of committed instruction (Count)
system.cpu.committedInstType_0::SimdFloatMultAcc            0      0.00%     47.31% # Class of committed instruction (Count)
system.cpu.committedInstType_0::SimdFloatSqrt            0      0.00%     47.31% # Class of committed instruction (Count)
system.cpu.committedInstType_0::SimdReduceAdd            0      0.00%     47.31% # Class of committed instruction (Count)
system.cpu.committedInstType_0::SimdReduceAlu            0      0.00%     47.31% # Class of committed instruction (Count)
system.cpu.committedInstType_0::SimdReduceCmp            0      0.00%     47.31% # Class of committed instruction (Count)
system.cpu.committedInstType_0::SimdFloatReduceAdd            0      0.00%     47.31% # Class of committed instruction (Count)
system.cpu.committedInstType_0::SimdFloatReduceCmp            0      0.00%     47.31% # Class of committed instruction (Count)
system.cpu.committedInstType_0::SimdAes             0      0.00%     47.31% # Class of committed instruction (Count)
system.cpu.committedInstType_0::SimdAesMix            0      0.00%     47.31% # Class of committed instruction (Count)
system.cpu.committedInstType_0::SimdSha1Hash            0      0.00%     47.31% # Class of committed instruction (Count)
system.cpu.committedInstType_0::SimdSha1Hash2            0      0.00%     47.31% # Class of committed instruction (Count)
system.cpu.committedInstType_0::SimdSha256Hash            0      0.00%     47.31% # Class of committed instruction (Count)
system.cpu.committedInstType_0::SimdSha256Hash2            0      0.00%     47.31% # Class of committed instruction (Count)
system.cpu.committedInstType_0::SimdShaSigma2            0      0.00%     47.31% # Class of committed instruction (Count)
system.cpu.committedInstType_0::SimdShaSigma3            0      0.00%     47.31% # Class of committed instruction (Count)
system.cpu.committedInstType_0::SimdPredAlu            0      0.00%     47.31% # Class of committed instruction (Count)
system.cpu.committedInstType_0::MemRead       3847923     36.60%     83.91% # Class of committed instruction (Count)
system.cpu.committedInstType_0::MemWrite      1691754     16.09%    100.00% # Class of committed instruction (Count)
system.cpu.committedInstType_0::FloatMemRead            0      0.00%    100.00% # Class of committed instruction (Count)
system.cpu.committedInstType_0::FloatMemWrite            0      0.00%    100.00% # Class of committed instruction (Count)
system.cpu.committedInstType_0::IprAccess            0      0.00%    100.00% # Class of committed instruction (Count)
system.cpu.committedInstType_0::InstPrefetch            0      0.00%    100.00% # Class of committed instruction (Count)
system.cpu.committedInstType_0::total        10513116                       # Class of committed instruction (Count)
system.cpu.branchPred.lookups                 1701861                       # Number of BP lookups (Count)
system.cpu.branchPred.condPredicted           1235913                       # Number of conditional branches predicted (Count)
system.cpu.branchPred.condIncorrect             16663                       # Number of conditional branches incorrect (Count)
system.cpu.branchPred.BTBLookups               750926                       # Number of BTB lookups (Count)
system.cpu.branchPred.BTBHits                  749627                       # Number of BTB hits (Count)
system.cpu.branchPred.BTBHitRatio            0.998270                       # BTB Hit Ratio (Ratio)
system.cpu.branchPred.RASUsed                   10415                       # Number of times the RAS was used to get a target. (Count)
system.cpu.branchPred.RASIncorrect                135                       # Number of incorrect RAS predictions. (Count)
system.cpu.branchPred.indirectLookups             179                       # Number of indirect predictor lookups. (Count)
system.cpu.branchPred.indirectHits                 48                       # Number of indirect target hits. (Count)
system.cpu.branchPred.indirectMisses              131                       # Number of indirect misses. (Count)
system.cpu.branchPred.indirectMispredicted           73                       # Number of mispredicted indirect branches. (Count)
system.cpu.dcache.demandHits::cpu.data        5520177                       # number of demand (read+write) hits (Count)
system.cpu.dcache.demandHits::total           5520177                       # number of demand (read+write) hits (Count)
system.cpu.dcache.overallHits::cpu.data       5520233                       # number of overall hits (Count)
system.cpu.dcache.overallHits::total          5520233                       # number of overall hits (Count)
system.cpu.dcache.demandMisses::cpu.data        13975                       # number of demand (read+write) misses (Count)
system.cpu.dcache.demandMisses::total           13975                       # number of demand (read+write) misses (Count)
system.cpu.dcache.overallMisses::cpu.data        13978                       # number of overall misses (Count)
system.cpu.dcache.overallMisses::total          13978                       # number of overall misses (Count)
system.cpu.dcache.demandMissLatency::cpu.data   1003993500                       # number of demand (read+write) miss ticks (Tick)
system.cpu.dcache.demandMissLatency::total   1003993500                       # number of demand (read+write) miss ticks (Tick)
system.cpu.dcache.overallMissLatency::cpu.data   1003993500                       # number of overall miss ticks (Tick)
system.cpu.dcache.overallMissLatency::total   1003993500                       # number of overall miss ticks (Tick)
system.cpu.dcache.demandAccesses::cpu.data      5534152                       # number of demand (read+write) accesses (Count)
system.cpu.dcache.demandAccesses::total       5534152                       # number of demand (read+write) accesses (Count)
system.cpu.dcache.overallAccesses::cpu.data      5534211                       # number of overall (read+write) accesses (Count)
system.cpu.dcache.overallAccesses::total      5534211                       # number of overall (read+write) accesses (Count)
system.cpu.dcache.demandMissRate::cpu.data     0.002525                       # miss rate for demand accesses (Ratio)
system.cpu.dcache.demandMissRate::total      0.002525                       # miss rate for demand accesses (Ratio)
system.cpu.dcache.overallMissRate::cpu.data     0.002526                       # miss rate for overall accesses (Ratio)
system.cpu.dcache.overallMissRate::total     0.002526                       # miss rate for overall accesses (Ratio)
system.cpu.dcache.demandAvgMissLatency::cpu.data 71842.110912                       # average overall miss latency in ticks ((Tick/Count))
system.cpu.dcache.demandAvgMissLatency::total 71842.110912                       # average overall miss latency in ticks ((Tick/Count))
system.cpu.dcache.overallAvgMissLatency::cpu.data 71826.691944                       # average overall miss latency ((Tick/Count))
system.cpu.dcache.overallAvgMissLatency::total 71826.691944                       # average overall miss latency ((Tick/Count))
system.cpu.dcache.blockedCycles::no_mshrs            0                       # number of cycles access was blocked (Cycle)
system.cpu.dcache.blockedCycles::no_targets            0                       # number of cycles access was blocked (Cycle)
system.cpu.dcache.blockedCauses::no_mshrs            0                       # number of times access was blocked (Count)
system.cpu.dcache.blockedCauses::no_targets            0                       # number of times access was blocked (Count)
system.cpu.dcache.avgBlocked::no_mshrs            nan                       # average number of cycles each access was blocked ((Cycle/Count))
system.cpu.dcache.avgBlocked::no_targets          nan                       # average number of cycles each access was blocked ((Cycle/Count))
system.cpu.dcache.writebacks::writebacks         5788                       # number of writebacks (Count)
system.cpu.dcache.writebacks::total              5788                       # number of writebacks (Count)
system.cpu.dcache.demandMshrHits::cpu.data         3037                       # number of demand (read+write) MSHR hits (Count)
system.cpu.dcache.demandMshrHits::total          3037                       # number of demand (read+write) MSHR hits (Count)
system.cpu.dcache.overallMshrHits::cpu.data         3037                       # number of overall MSHR hits (Count)
system.cpu.dcache.overallMshrHits::total         3037                       # number of overall MSHR hits (Count)
system.cpu.dcache.demandMshrMisses::cpu.data        10938                       # number of demand (read+write) MSHR misses (Count)
system.cpu.dcache.demandMshrMisses::total        10938                       # number of demand (read+write) MSHR misses (Count)
system.cpu.dcache.overallMshrMisses::cpu.data        10941                       # number of overall MSHR misses (Count)
system.cpu.dcache.overallMshrMisses::total        10941                       # number of overall MSHR misses (Count)
system.cpu.dcache.demandMshrMissLatency::cpu.data    838071500                       # number of demand (read+write) MSHR miss ticks (Tick)
system.cpu.dcache.demandMshrMissLatency::total    838071500                       # number of demand (read+write) MSHR miss ticks (Tick)
system.cpu.dcache.overallMshrMissLatency::cpu.data    838328000                       # number of overall MSHR miss ticks (Tick)
system.cpu.dcache.overallMshrMissLatency::total    838328000                       # number of overall MSHR miss ticks (Tick)
system.cpu.dcache.demandMshrMissRate::cpu.data     0.001976                       # mshr miss ratio for demand accesses (Ratio)
system.cpu.dcache.demandMshrMissRate::total     0.001976                       # mshr miss ratio for demand accesses (Ratio)
system.cpu.dcache.overallMshrMissRate::cpu.data     0.001977                       # mshr miss ratio for overall accesses (Ratio)
system.cpu.dcache.overallMshrMissRate::total     0.001977                       # mshr miss ratio for overall accesses (Ratio)
system.cpu.dcache.demandAvgMshrMissLatency::cpu.data 76620.177363                       # average overall mshr miss latency ((Tick/Count))
system.cpu.dcache.demandAvgMshrMissLatency::total 76620.177363                       # average overall mshr miss latency ((Tick/Count))
system.cpu.dcache.overallAvgMshrMissLatency::cpu.data 76622.612193                       # average overall mshr miss latency ((Tick/Count))
system.cpu.dcache.overallAvgMshrMissLatency::total 76622.612193                       # average overall mshr miss latency ((Tick/Count))
system.cpu.dcache.replacements                   9917                       # number of replacements (Count)
system.cpu.dcache.LoadLockedReq.hits::cpu.data           36                       # number of LoadLockedReq hits (Count)
system.cpu.dcache.LoadLockedReq.hits::total           36                       # number of LoadLockedReq hits (Count)
system.cpu.dcache.LoadLockedReq.accesses::cpu.data           36                       # number of LoadLockedReq accesses(hits+misses) (Count)
system.cpu.dcache.LoadLockedReq.accesses::total           36                       # number of LoadLockedReq accesses(hits+misses) (Count)
system.cpu.dcache.ReadReq.hits::cpu.data      3838579                       # number of ReadReq hits (Count)
system.cpu.dcache.ReadReq.hits::total         3838579                       # number of ReadReq hits (Count)
system.cpu.dcache.ReadReq.misses::cpu.data         4676                       # number of ReadReq misses (Count)
system.cpu.dcache.ReadReq.misses::total          4676                       # number of ReadReq misses (Count)
system.cpu.dcache.ReadReq.missLatency::cpu.data    341802000                       # number of ReadReq miss ticks (Tick)
system.cpu.dcache.ReadReq.missLatency::total    341802000                       # number of ReadReq miss ticks (Tick)
system.cpu.dcache.ReadReq.accesses::cpu.data      3843255                       # number of ReadReq accesses(hits+misses) (Count)
system.cpu.dcache.ReadReq.accesses::total      3843255                       # number of ReadReq accesses(hits+misses) (Count)
system.cpu.dcache.ReadReq.missRate::cpu.data     0.001217                       # miss rate for ReadReq accesses (Ratio)
system.cpu.dcache.ReadReq.missRate::total     0.001217                       # miss rate for ReadReq accesses (Ratio)
system.cpu.dcache.ReadReq.avgMissLatency::cpu.data 73097.091531                       # average ReadReq miss latency ((Tick/Count))
system.cpu.dcache.ReadReq.avgMissLatency::total 73097.091531                       # average ReadReq miss latency ((Tick/Count))
system.cpu.dcache.ReadReq.mshrHits::cpu.data            5                       # number of ReadReq MSHR hits (Count)
system.cpu.dcache.ReadReq.mshrHits::total            5                       # number of ReadReq MSHR hits (Count)
system.cpu.dcache.ReadReq.mshrMisses::cpu.data         4671                       # number of ReadReq MSHR misses (Count)
system.cpu.dcache.ReadReq.mshrMisses::total         4671                       # number of ReadReq MSHR misses (Count)
system.cpu.dcache.ReadReq.mshrMissLatency::cpu.data    336736500                       # number of ReadReq MSHR miss ticks (Tick)
system.cpu.dcache.ReadReq.mshrMissLatency::total    336736500                       # number of ReadReq MSHR miss ticks (Tick)
system.cpu.dcache.ReadReq.mshrMissRate::cpu.data     0.001215                       # mshr miss rate for ReadReq accesses (Ratio)
system.cpu.dcache.ReadReq.mshrMissRate::total     0.001215                       # mshr miss rate for ReadReq accesses (Ratio)
system.cpu.dcache.ReadReq.avgMshrMissLatency::cpu.data 72090.879897                       # average ReadReq mshr miss latency ((Tick/Count))
system.cpu.dcache.ReadReq.avgMshrMissLatency::total 72090.879897                       # average ReadReq mshr miss latency ((Tick/Count))
system.cpu.dcache.SoftPFReq.hits::cpu.data           56                       # number of SoftPFReq hits (Count)
system.cpu.dcache.SoftPFReq.hits::total            56                       # number of SoftPFReq hits (Count)
system.cpu.dcache.SoftPFReq.misses::cpu.data            3                       # number of SoftPFReq misses (Count)
system.cpu.dcache.SoftPFReq.misses::total            3                       # number of SoftPFReq misses (Count)
system.cpu.dcache.SoftPFReq.accesses::cpu.data           59                       # number of SoftPFReq accesses(hits+misses) (Count)
system.cpu.dcache.SoftPFReq.accesses::total           59                       # number of SoftPFReq accesses(hits+misses) (Count)
system.cpu.dcache.SoftPFReq.missRate::cpu.data     0.050847                       # miss rate for SoftPFReq accesses (Ratio)
system.cpu.dcache.SoftPFReq.missRate::total     0.050847                       # miss rate for SoftPFReq accesses (Ratio)
system.cpu.dcache.SoftPFReq.mshrMisses::cpu.data            3                       # number of SoftPFReq MSHR misses (Count)
system.cpu.dcache.SoftPFReq.mshrMisses::total            3                       # number of SoftPFReq MSHR misses (Count)
system.cpu.dcache.SoftPFReq.mshrMissLatency::cpu.data       256500                       # number of SoftPFReq MSHR miss ticks (Tick)
system.cpu.dcache.SoftPFReq.mshrMissLatency::total       256500                       # number of SoftPFReq MSHR miss ticks (Tick)
system.cpu.dcache.SoftPFReq.mshrMissRate::cpu.data     0.050847                       # mshr miss rate for SoftPFReq accesses (Ratio)
system.cpu.dcache.SoftPFReq.mshrMissRate::total     0.050847                       # mshr miss rate for SoftPFReq accesses (Ratio)
system.cpu.dcache.SoftPFReq.avgMshrMissLatency::cpu.data        85500                       # average SoftPFReq mshr miss latency ((Tick/Count))
system.cpu.dcache.SoftPFReq.avgMshrMissLatency::total        85500                       # average SoftPFReq mshr miss latency ((Tick/Count))
system.cpu.dcache.StoreCondReq.hits::cpu.data           36                       # number of StoreCondReq hits (Count)
system.cpu.dcache.StoreCondReq.hits::total           36                       # number of StoreCondReq hits (Count)
system.cpu.dcache.StoreCondReq.accesses::cpu.data           36                       # number of StoreCondReq accesses(hits+misses) (Count)
system.cpu.dcache.StoreCondReq.accesses::total           36                       # number of StoreCondReq accesses(hits+misses) (Count)
system.cpu.dcache.WriteLineReq.misses::cpu.data            7                       # number of WriteLineReq misses (Count)
system.cpu.dcache.WriteLineReq.misses::total            7                       # number of WriteLineReq misses (Count)
system.cpu.dcache.WriteLineReq.missLatency::cpu.data       220000                       # number of WriteLineReq miss ticks (Tick)
system.cpu.dcache.WriteLineReq.missLatency::total       220000                       # number of WriteLineReq miss ticks (Tick)
system.cpu.dcache.WriteLineReq.accesses::cpu.data            7                       # number of WriteLineReq accesses(hits+misses) (Count)
system.cpu.dcache.WriteLineReq.accesses::total            7                       # number of WriteLineReq accesses(hits+misses) (Count)
system.cpu.dcache.WriteLineReq.missRate::cpu.data            1                       # miss rate for WriteLineReq accesses (Ratio)
system.cpu.dcache.WriteLineReq.missRate::total            1                       # miss rate for WriteLineReq accesses (Ratio)
system.cpu.dcache.WriteLineReq.avgMissLatency::cpu.data 31428.571429                       # average WriteLineReq miss latency ((Tick/Count))
system.cpu.dcache.WriteLineReq.avgMissLatency::total 31428.571429                       # average WriteLineReq miss latency ((Tick/Count))
system.cpu.dcache.WriteLineReq.mshrMisses::cpu.data            7                       # number of WriteLineReq MSHR misses (Count)
system.cpu.dcache.WriteLineReq.mshrMisses::total            7                       # number of WriteLineReq MSHR misses (Count)
system.cpu.dcache.WriteLineReq.mshrMissLatency::cpu.data       213000                       # number of WriteLineReq MSHR miss ticks (Tick)
system.cpu.dcache.WriteLineReq.mshrMissLatency::total       213000                       # number of WriteLineReq MSHR miss ticks (Tick)
system.cpu.dcache.WriteLineReq.mshrMissRate::cpu.data            1                       # mshr miss rate for WriteLineReq accesses (Ratio)
system.cpu.dcache.WriteLineReq.mshrMissRate::total            1                       # mshr miss rate for WriteLineReq accesses (Ratio)
system.cpu.dcache.WriteLineReq.avgMshrMissLatency::cpu.data 30428.571429                       # average WriteLineReq mshr miss latency ((Tick/Count))
system.cpu.dcache.WriteLineReq.avgMshrMissLatency::total 30428.571429                       # average WriteLineReq mshr miss latency ((Tick/Count))
system.cpu.dcache.WriteReq.hits::cpu.data      1681598                       # number of WriteReq hits (Count)
system.cpu.dcache.WriteReq.hits::total        1681598                       # number of WriteReq hits (Count)
system.cpu.dcache.WriteReq.misses::cpu.data         9292                       # number of WriteReq misses (Count)
system.cpu.dcache.WriteReq.misses::total         9292                       # number of WriteReq misses (Count)
system.cpu.dcache.WriteReq.missLatency::cpu.data    661971500                       # number of WriteReq miss ticks (Tick)
system.cpu.dcache.WriteReq.missLatency::total    661971500                       # number of WriteReq miss ticks (Tick)
system.cpu.dcache.WriteReq.accesses::cpu.data      1690890                       # number of WriteReq accesses(hits+misses) (Count)
system.cpu.dcache.WriteReq.accesses::total      1690890                       # number of WriteReq accesses(hits+misses) (Count)
system.cpu.dcache.WriteReq.missRate::cpu.data     0.005495                       # miss rate for WriteReq accesses (Ratio)
system.cpu.dcache.WriteReq.missRate::total     0.005495                       # miss rate for WriteReq accesses (Ratio)
system.cpu.dcache.WriteReq.avgMissLatency::cpu.data 71241.013775                       # average WriteReq miss latency ((Tick/Count))
system.cpu.dcache.WriteReq.avgMissLatency::total 71241.013775                       # average WriteReq miss latency ((Tick/Count))
system.cpu.dcache.WriteReq.mshrHits::cpu.data         3032                       # number of WriteReq MSHR hits (Count)
system.cpu.dcache.WriteReq.mshrHits::total         3032                       # number of WriteReq MSHR hits (Count)
system.cpu.dcache.WriteReq.mshrMisses::cpu.data         6260                       # number of WriteReq MSHR misses (Count)
system.cpu.dcache.WriteReq.mshrMisses::total         6260                       # number of WriteReq MSHR misses (Count)
system.cpu.dcache.WriteReq.mshrMissLatency::cpu.data    501122000                       # number of WriteReq MSHR miss ticks (Tick)
system.cpu.dcache.WriteReq.mshrMissLatency::total    501122000                       # number of WriteReq MSHR miss ticks (Tick)
system.cpu.dcache.WriteReq.mshrMissRate::cpu.data     0.003702                       # mshr miss rate for WriteReq accesses (Ratio)
system.cpu.dcache.WriteReq.mshrMissRate::total     0.003702                       # mshr miss rate for WriteReq accesses (Ratio)
system.cpu.dcache.WriteReq.avgMshrMissLatency::cpu.data 80051.437700                       # average WriteReq mshr miss latency ((Tick/Count))
system.cpu.dcache.WriteReq.avgMshrMissLatency::total 80051.437700                       # average WriteReq mshr miss latency ((Tick/Count))
system.cpu.dcache.power_state.pwrStateResidencyTicks::UNDEFINED   8342469500                       # Cumulative time (in ticks) in various power states (Tick)
system.cpu.dcache.tags.tagsInUse          1002.251985                       # Average ticks per tags in use ((Tick/Count))
system.cpu.dcache.tags.totalRefs              5531246                       # Total number of references to valid blocks. (Count)
system.cpu.dcache.tags.sampledRefs              10941                       # Sample count of references to valid blocks. (Count)
system.cpu.dcache.tags.avgRefs             505.552143                       # Average number of references to valid blocks. ((Count/Count))
system.cpu.dcache.tags.warmupTick              176500                       # The tick when the warmup percentage was hit. (Tick)
system.cpu.dcache.tags.occupancies::cpu.data  1002.251985                       # Average occupied blocks per tick, per requestor ((Count/Tick))
system.cpu.dcache.tags.avgOccs::cpu.data     0.978762                       # Average percentage of cache occupancy ((Ratio/Tick))
system.cpu.dcache.tags.avgOccs::total        0.978762                       # Average percentage of cache occupancy ((Ratio/Tick))
system.cpu.dcache.tags.occupanciesTaskId::1024         1024                       # Occupied blocks per task id (Count)
system.cpu.dcache.tags.ageTaskId_1024::0            5                       # Occupied blocks per task id, per block age (Count)
system.cpu.dcache.tags.ageTaskId_1024::1          115                       # Occupied blocks per task id, per block age (Count)
system.cpu.dcache.tags.ageTaskId_1024::2          690                       # Occupied blocks per task id, per block age (Count)
system.cpu.dcache.tags.ageTaskId_1024::3          214                       # Occupied blocks per task id, per block age (Count)
system.cpu.dcache.tags.ratioOccsTaskId::1024            1                       # Ratio of occupied blocks and all blocks, per task id (Ratio)
system.cpu.dcache.tags.tagAccesses           11079507                       # Number of tag accesses (Count)
system.cpu.dcache.tags.dataAccesses          11079507                       # Number of data accesses (Count)
system.cpu.dcache.tags.power_state.pwrStateResidencyTicks::UNDEFINED   8342469500                       # Cumulative time (in ticks) in various power states (Tick)
system.cpu.fetch2.intInstructions             3354352                       # Number of integer instructions successfully decoded (Count)
system.cpu.fetch2.fpInstructions                    0                       # Number of floating point instructions successfully decoded (Count)
system.cpu.fetch2.vecInstructions                 170                       # Number of SIMD instructions successfully decoded (Count)
system.cpu.fetch2.loadInstructions            3414337                       # Number of memory load instructions successfully decoded (Count)
system.cpu.fetch2.storeInstructions           1672131                       # Number of memory store instructions successfully decoded (Count)
system.cpu.fetch2.amoInstructions                   0                       # Number of memory atomic instructions successfully decoded (Count)
system.cpu.icache.demandHits::cpu.inst        5060403                       # number of demand (read+write) hits (Count)
system.cpu.icache.demandHits::total           5060403                       # number of demand (read+write) hits (Count)
system.cpu.icache.overallHits::cpu.inst       5060403                       # number of overall hits (Count)
system.cpu.icache.overallHits::total          5060403                       # number of overall hits (Count)
system.cpu.icache.demandMisses::cpu.inst          671                       # number of demand (read+write) misses (Count)
system.cpu.icache.demandMisses::total             671                       # number of demand (read+write) misses (Count)
system.cpu.icache.overallMisses::cpu.inst          671                       # number of overall misses (Count)
system.cpu.icache.overallMisses::total            671                       # number of overall misses (Count)
system.cpu.icache.demandMissLatency::cpu.inst     46656000                       # number of demand (read+write) miss ticks (Tick)
system.cpu.icache.demandMissLatency::total     46656000                       # number of demand (read+write) miss ticks (Tick)
system.cpu.icache.overallMissLatency::cpu.inst     46656000                       # number of overall miss ticks (Tick)
system.cpu.icache.overallMissLatency::total     46656000                       # number of overall miss ticks (Tick)
system.cpu.icache.demandAccesses::cpu.inst      5061074                       # number of demand (read+write) accesses (Count)
system.cpu.icache.demandAccesses::total       5061074                       # number of demand (read+write) accesses (Count)
system.cpu.icache.overallAccesses::cpu.inst      5061074                       # number of overall (read+write) accesses (Count)
system.cpu.icache.overallAccesses::total      5061074                       # number of overall (read+write) accesses (Count)
system.cpu.icache.demandMissRate::cpu.inst     0.000133                       # miss rate for demand accesses (Ratio)
system.cpu.icache.demandMissRate::total      0.000133                       # miss rate for demand accesses (Ratio)
system.cpu.icache.overallMissRate::cpu.inst     0.000133                       # miss rate for overall accesses (Ratio)
system.cpu.icache.overallMissRate::total     0.000133                       # miss rate for overall accesses (Ratio)
system.cpu.icache.demandAvgMissLatency::cpu.inst 69532.041729                       # average overall miss latency in ticks ((Tick/Count))
system.cpu.icache.demandAvgMissLatency::total 69532.041729                       # average overall miss latency in ticks ((Tick/Count))
system.cpu.icache.overallAvgMissLatency::cpu.inst 69532.041729                       # average overall miss latency ((Tick/Count))
system.cpu.icache.overallAvgMissLatency::total 69532.041729                       # average overall miss latency ((Tick/Count))
system.cpu.icache.blockedCycles::no_mshrs            0                       # number of cycles access was blocked (Cycle)
system.cpu.icache.blockedCycles::no_targets            0                       # number of cycles access was blocked (Cycle)
system.cpu.icache.blockedCauses::no_mshrs            0                       # number of times access was blocked (Count)
system.cpu.icache.blockedCauses::no_targets            0                       # number of times access was blocked (Count)
system.cpu.icache.avgBlocked::no_mshrs            nan                       # average number of cycles each access was blocked ((Cycle/Count))
system.cpu.icache.avgBlocked::no_targets          nan                       # average number of cycles each access was blocked ((Cycle/Count))
system.cpu.icache.writebacks::writebacks          420                       # number of writebacks (Count)
system.cpu.icache.writebacks::total               420                       # number of writebacks (Count)
system.cpu.icache.demandMshrMisses::cpu.inst          671                       # number of demand (read+write) MSHR misses (Count)
system.cpu.icache.demandMshrMisses::total          671                       # number of demand (read+write) MSHR misses (Count)
system.cpu.icache.overallMshrMisses::cpu.inst          671                       # number of overall MSHR misses (Count)
system.cpu.icache.overallMshrMisses::total          671                       # number of overall MSHR misses (Count)
system.cpu.icache.demandMshrMissLatency::cpu.inst     45985000                       # number of demand (read+write) MSHR miss ticks (Tick)
system.cpu.icache.demandMshrMissLatency::total     45985000                       # number of demand (read+write) MSHR miss ticks (Tick)
system.cpu.icache.overallMshrMissLatency::cpu.inst     45985000                       # number of overall MSHR miss ticks (Tick)
system.cpu.icache.overallMshrMissLatency::total     45985000                       # number of overall MSHR miss ticks (Tick)
system.cpu.icache.demandMshrMissRate::cpu.inst     0.000133                       # mshr miss ratio for demand accesses (Ratio)
system.cpu.icache.demandMshrMissRate::total     0.000133                       # mshr miss ratio for demand accesses (Ratio)
system.cpu.icache.overallMshrMissRate::cpu.inst     0.000133                       # mshr miss ratio for overall accesses (Ratio)
system.cpu.icache.overallMshrMissRate::total     0.000133                       # mshr miss ratio for overall accesses (Ratio)
system.cpu.icache.demandAvgMshrMissLatency::cpu.inst 68532.041729                       # average overall mshr miss latency ((Tick/Count))
system.cpu.icache.demandAvgMshrMissLatency::total 68532.041729                       # average overall mshr miss latency ((Tick/Count))
system.cpu.icache.overallAvgMshrMissLatency::cpu.inst 68532.041729                       # average overall mshr miss latency ((Tick/Count))
system.cpu.icache.overallAvgMshrMissLatency::total 68532.041729                       # average overall mshr miss latency ((Tick/Count))
system.cpu.icache.replacements                    420                       # number of replacements (Count)
system.cpu.icache.ReadReq.hits::cpu.inst      5060403                       # number of ReadReq hits (Count)
system.cpu.icache.ReadReq.hits::total         5060403                       # number of ReadReq hits (Count)
system.cpu.icache.ReadReq.misses::cpu.inst          671                       # number of ReadReq misses (Count)
system.cpu.icache.ReadReq.misses::total           671                       # number of ReadReq misses (Count)
system.cpu.icache.ReadReq.missLatency::cpu.inst     46656000                       # number of ReadReq miss ticks (Tick)
system.cpu.icache.ReadReq.missLatency::total     46656000                       # number of ReadReq miss ticks (Tick)
system.cpu.icache.ReadReq.accesses::cpu.inst      5061074                       # number of ReadReq accesses(hits+misses) (Count)
system.cpu.icache.ReadReq.accesses::total      5061074                       # number of ReadReq accesses(hits+misses) (Count)
system.cpu.icache.ReadReq.missRate::cpu.inst     0.000133                       # miss rate for ReadReq accesses (Ratio)
system.cpu.icache.ReadReq.missRate::total     0.000133                       # miss rate for ReadReq accesses (Ratio)
system.cpu.icache.ReadReq.avgMissLatency::cpu.inst 69532.041729                       # average ReadReq miss latency ((Tick/Count))
system.cpu.icache.ReadReq.avgMissLatency::total 69532.041729                       # average ReadReq miss latency ((Tick/Count))
system.cpu.icache.ReadReq.mshrMisses::cpu.inst          671                       # number of ReadReq MSHR misses (Count)
system.cpu.icache.ReadReq.mshrMisses::total          671                       # number of ReadReq MSHR misses (Count)
system.cpu.icache.ReadReq.mshrMissLatency::cpu.inst     45985000                       # number of ReadReq MSHR miss ticks (Tick)
system.cpu.icache.ReadReq.mshrMissLatency::total     45985000                       # number of ReadReq MSHR miss ticks (Tick)
system.cpu.icache.ReadReq.mshrMissRate::cpu.inst     0.000133                       # mshr miss rate for ReadReq accesses (Ratio)
system.cpu.icache.ReadReq.mshrMissRate::total     0.000133                       # mshr miss rate for ReadReq accesses (Ratio)
system.cpu.icache.ReadReq.avgMshrMissLatency::cpu.inst 68532.041729                       # average ReadReq mshr miss latency ((Tick/Count))
system.cpu.icache.ReadReq.avgMshrMissLatency::total 68532.041729                       # average ReadReq mshr miss latency ((Tick/Count))
system.cpu.icache.power_state.pwrStateResidencyTicks::UNDEFINED   8342469500                       # Cumulative time (in ticks) in various power states (Tick)
system.cpu.icache.tags.tagsInUse           250.228070                       # Average ticks per tags in use ((Tick/Count))
system.cpu.icache.tags.totalRefs              5061074                       # Total number of references to valid blocks. (Count)
system.cpu.icache.tags.sampledRefs                671                       # Sample count of references to valid blocks. (Count)
system.cpu.icache.tags.avgRefs            7542.584203                       # Average number of references to valid blocks. ((Count/Count))
system.cpu.icache.tags.warmupTick               87500                       # The tick when the warmup percentage was hit. (Tick)
system.cpu.icache.tags.occupancies::cpu.inst   250.228070                       # Average occupied blocks per tick, per requestor ((Count/Tick))
system.cpu.icache.tags.avgOccs::cpu.inst     0.977453                       # Average percentage of cache occupancy ((Ratio/Tick))
system.cpu.icache.tags.avgOccs::total        0.977453                       # Average percentage of cache occupancy ((Ratio/Tick))
system.cpu.icache.tags.occupanciesTaskId::1024          251                       # Occupied blocks per task id (Count)
system.cpu.icache.tags.ageTaskId_1024::3          251                       # Occupied blocks per task id, per block age (Count)
system.cpu.icache.tags.ratioOccsTaskId::1024     0.980469                       # Ratio of occupied blocks and all blocks, per task id (Ratio)
system.cpu.icache.tags.tagAccesses           10122819                       # Number of tag accesses (Count)
system.cpu.icache.tags.dataAccesses          10122819                       # Number of data accesses (Count)
system.cpu.icache.tags.power_state.pwrStateResidencyTicks::UNDEFINED   8342469500                       # Cumulative time (in ticks) in various power states (Tick)
system.cpu.mmu.alignFaults                          0                       # Number of MMU faults due to alignment restrictions (Count)
system.cpu.mmu.prefetchFaults                       0                       # Number of MMU faults due to prefetch (Count)
system.cpu.mmu.domainFaults                         0                       # Number of MMU faults due to domain restrictions (Count)
system.cpu.mmu.permsFaults                          0                       # Number of MMU faults due to permissions restrictions (Count)
system.cpu.mmu.dtb.readHits                         0                       # Read hits (Count)
system.cpu.mmu.dtb.readMisses                       0                       # Read misses (Count)
system.cpu.mmu.dtb.writeHits                        0                       # Write hits (Count)
system.cpu.mmu.dtb.writeMisses                      0                       # Write misses (Count)
system.cpu.mmu.dtb.inserts                          0                       # Number of times an entry is inserted into the TLB (Count)
system.cpu.mmu.dtb.flushTlb                         0                       # Number of times complete TLB was flushed (Count)
system.cpu.mmu.dtb.flushTlbMva                      0                       # Number of times TLB was flushed by MVA (Count)
system.cpu.mmu.dtb.flushTlbMvaAsid                  0                       # Number of times TLB was flushed by MVA & ASID (Count)
system.cpu.mmu.dtb.flushTlbAsid                     0                       # Number of times TLB was flushed by ASID (Count)
system.cpu.mmu.dtb.flushedEntries                   0                       # Number of entries that have been flushed from TLB (Count)
system.cpu.mmu.dtb.readAccesses                     0                       # Read accesses (Count)
system.cpu.mmu.dtb.writeAccesses                    0                       # Write accesses (Count)
system.cpu.mmu.dtb.hits                             0                       # Total TLB (inst and data) hits (Count)
system.cpu.mmu.dtb.misses                           0                       # Total TLB (inst and data) misses (Count)
system.cpu.mmu.dtb.accesses                         0                       # Total TLB (inst and data) accesses (Count)
system.cpu.mmu.dtb_walker.walks                     0                       # Table walker walks requested (Count)
system.cpu.mmu.dtb_walker.requestOrigin_Requested::Data            0                       # Table walker requests started/completed, data/inst (Count)
system.cpu.mmu.dtb_walker.requestOrigin_Requested::Inst            0                       # Table walker requests started/completed, data/inst (Count)
system.cpu.mmu.dtb_walker.requestOrigin_Requested::total            0                       # Table walker requests started/completed, data/inst (Count)
system.cpu.mmu.dtb_walker.requestOrigin_Completed::Data            0                       # Table walker requests started/completed, data/inst (Count)
system.cpu.mmu.dtb_walker.requestOrigin_Completed::Inst            0                       # Table walker requests started/completed, data/inst (Count)
system.cpu.mmu.dtb_walker.requestOrigin_Completed::total            0                       # Table walker requests started/completed, data/inst (Count)
system.cpu.mmu.dtb_walker.requestOrigin::total            0                       # Table walker requests started/completed, data/inst (Count)
system.cpu.mmu.dtb_walker.power_state.pwrStateResidencyTicks::UNDEFINED   8342469500                       # Cumulative time (in ticks) in various power states (Tick)
system.cpu.mmu.itb.instHits                         0                       # Inst hits (Count)
system.cpu.mmu.itb.instMisses                       0                       # Inst misses (Count)
system.cpu.mmu.itb.inserts                          0                       # Number of times an entry is inserted into the TLB (Count)
system.cpu.mmu.itb.flushTlb                         0                       # Number of times complete TLB was flushed (Count)
system.cpu.mmu.itb.flushTlbMva                      0                       # Number of times TLB was flushed by MVA (Count)
system.cpu.mmu.itb.flushTlbMvaAsid                  0                       # Number of times TLB was flushed by MVA & ASID (Count)
system.cpu.mmu.itb.flushTlbAsid                     0                       # Number of times TLB was flushed by ASID (Count)
system.cpu.mmu.itb.flushedEntries                   0                       # Number of entries that have been flushed from TLB (Count)
system.cpu.mmu.itb.instAccesses                     0                       # Inst accesses (Count)
system.cpu.mmu.itb.hits                             0                       # Total TLB (inst and data) hits (Count)
system.cpu.mmu.itb.misses                           0                       # Total TLB (inst and data) misses (Count)
system.cpu.mmu.itb.accesses                         0                       # Total TLB (inst and data) accesses (Count)
system.cpu.mmu.itb_walker.walks                     0                       # Table walker walks requested (Count)
system.cpu.mmu.itb_walker.requestOrigin_Requested::Data            0                       # Table walker requests started/completed, data/inst (Count)
system.cpu.mmu.itb_walker.requestOrigin_Requested::Inst            0                       # Table walker requests started/completed, data/inst (Count)
system.cpu.mmu.itb_walker.requestOrigin_Requested::total            0                       # Table walker requests started/completed, data/inst (Count)
system.cpu.mmu.itb_walker.requestOrigin_Completed::Data            0                       # Table walker requests started/completed, data/inst (Count)
system.cpu.mmu.itb_walker.requestOrigin_Completed::Inst            0                       # Table walker requests started/completed, data/inst (Count)
system.cpu.mmu.itb_walker.requestOrigin_Completed::total            0                       # Table walker requests started/completed, data/inst (Count)
system.cpu.mmu.itb_walker.requestOrigin::total            0                       # Table walker requests started/completed, data/inst (Count)
system.cpu.mmu.itb_walker.power_state.pwrStateResidencyTicks::UNDEFINED   8342469500                       # Cumulative time (in ticks) in various power states (Tick)
system.cpu.mmu.l2_shared.instHits                   0                       # Inst hits (Count)
system.cpu.mmu.l2_shared.instMisses                 0                       # Inst misses (Count)
system.cpu.mmu.l2_shared.inserts                    0                       # Number of times an entry is inserted into the TLB (Count)
system.cpu.mmu.l2_shared.flushTlb                   0                       # Number of times complete TLB was flushed (Count)
system.cpu.mmu.l2_shared.flushTlbMva                0                       # Number of times TLB was flushed by MVA (Count)
system.cpu.mmu.l2_shared.flushTlbMvaAsid            0                       # Number of times TLB was flushed by MVA & ASID (Count)
system.cpu.mmu.l2_shared.flushTlbAsid               0                       # Number of times TLB was flushed by ASID (Count)
system.cpu.mmu.l2_shared.flushedEntries             0                       # Number of entries that have been flushed from TLB (Count)
system.cpu.mmu.l2_shared.instAccesses               0                       # Inst accesses (Count)
system.cpu.mmu.l2_shared.hits                       0                       # Total TLB (inst and data) hits (Count)
system.cpu.mmu.l2_shared.misses                     0                       # Total TLB (inst and data) misses (Count)
system.cpu.mmu.l2_shared.accesses                   0                       # Total TLB (inst and data) accesses (Count)
system.cpu.mmu.stage2_dtb.readHits                  0                       # Read hits (Count)
system.cpu.mmu.stage2_dtb.readMisses                0                       # Read misses (Count)
system.cpu.mmu.stage2_dtb.writeHits                 0                       # Write hits (Count)
system.cpu.mmu.stage2_dtb.writeMisses               0                       # Write misses (Count)
system.cpu.mmu.stage2_dtb.inserts                   0                       # Number of times an entry is inserted into the TLB (Count)
system.cpu.mmu.stage2_dtb.flushTlb                  0                       # Number of times complete TLB was flushed (Count)
system.cpu.mmu.stage2_dtb.flushTlbMva               0                       # Number of times TLB was flushed by MVA (Count)
system.cpu.mmu.stage2_dtb.flushTlbMvaAsid            0                       # Number of times TLB was flushed by MVA & ASID (Count)
system.cpu.mmu.stage2_dtb.flushTlbAsid              0                       # Number of times TLB was flushed by ASID (Count)
system.cpu.mmu.stage2_dtb.flushedEntries            0                       # Number of entries that have been flushed from TLB (Count)
system.cpu.mmu.stage2_dtb.readAccesses              0                       # Read accesses (Count)
system.cpu.mmu.stage2_dtb.writeAccesses             0                       # Write accesses (Count)
system.cpu.mmu.stage2_dtb.hits                      0                       # Total TLB (inst and data) hits (Count)
system.cpu.mmu.stage2_dtb.misses                    0                       # Total TLB (inst and data) misses (Count)
system.cpu.mmu.stage2_dtb.accesses                  0                       # Total TLB (inst and data) accesses (Count)
system.cpu.mmu.stage2_dtb_walker.walks              0                       # Table walker walks requested (Count)
system.cpu.mmu.stage2_dtb_walker.requestOrigin_Requested::Data            0                       # Table walker requests started/completed, data/inst (Count)
system.cpu.mmu.stage2_dtb_walker.requestOrigin_Requested::Inst            0                       # Table walker requests started/completed, data/inst (Count)
system.cpu.mmu.stage2_dtb_walker.requestOrigin_Requested::total            0                       # Table walker requests started/completed, data/inst (Count)
system.cpu.mmu.stage2_dtb_walker.requestOrigin_Completed::Data            0                       # Table walker requests started/completed, data/inst (Count)
system.cpu.mmu.stage2_dtb_walker.requestOrigin_Completed::Inst            0                       # Table walker requests started/completed, data/inst (Count)
system.cpu.mmu.stage2_dtb_walker.requestOrigin_Completed::total            0                       # Table walker requests started/completed, data/inst (Count)
system.cpu.mmu.stage2_dtb_walker.requestOrigin::total            0                       # Table walker requests started/completed, data/inst (Count)
system.cpu.mmu.stage2_dtb_walker.power_state.pwrStateResidencyTicks::UNDEFINED   8342469500                       # Cumulative time (in ticks) in various power states (Tick)
system.cpu.mmu.stage2_itb.instHits                  0                       # Inst hits (Count)
system.cpu.mmu.stage2_itb.instMisses                0                       # Inst misses (Count)
system.cpu.mmu.stage2_itb.inserts                   0                       # Number of times an entry is inserted into the TLB (Count)
system.cpu.mmu.stage2_itb.flushTlb                  0                       # Number of times complete TLB was flushed (Count)
system.cpu.mmu.stage2_itb.flushTlbMva               0                       # Number of times TLB was flushed by MVA (Count)
system.cpu.mmu.stage2_itb.flushTlbMvaAsid            0                       # Number of times TLB was flushed by MVA & ASID (Count)
system.cpu.mmu.stage2_itb.flushTlbAsid              0                       # Number of times TLB was flushed by ASID (Count)
system.cpu.mmu.stage2_itb.flushedEntries            0                       # Number of entries that have been flushed from TLB (Count)
system.cpu.mmu.stage2_itb.instAccesses              0                       # Inst accesses (Count)
system.cpu.mmu.stage2_itb.hits                      0                       # Total TLB (inst and data) hits (Count)
system.cpu.mmu.stage2_itb.misses                    0                       # Total TLB (inst and data) misses (Count)
system.cpu.mmu.stage2_itb.accesses                  0                       # Total TLB (inst and data) accesses (Count)
system.cpu.mmu.stage2_itb_walker.walks              0                       # Table walker walks requested (Count)
system.cpu.mmu.stage2_itb_walker.requestOrigin_Requested::Data            0                       # Table walker requests started/completed, data/inst (Count)
system.cpu.mmu.stage2_itb_walker.requestOrigin_Requested::Inst            0                       # Table walker requests started/completed, data/inst (Count)
system.cpu.mmu.stage2_itb_walker.requestOrigin_Requested::total            0                       # Table walker requests started/completed, data/inst (Count)
system.cpu.mmu.stage2_itb_walker.requestOrigin_Completed::Data            0                       # Table walker requests started/completed, data/inst (Count)
system.cpu.mmu.stage2_itb_walker.requestOrigin_Completed::Inst            0                       # Table walker requests started/completed, data/inst (Count)
system.cpu.mmu.stage2_itb_walker.requestOrigin_Completed::total            0                       # Table walker requests started/completed, data/inst (Count)
system.cpu.mmu.stage2_itb_walker.requestOrigin::total            0                       # Table walker requests started/completed, data/inst (Count)
system.cpu.mmu.stage2_itb_walker.power_state.pwrStateResidencyTicks::UNDEFINED   8342469500                       # Cumulative time (in ticks) in various power states (Tick)
system.cpu.power_state.pwrStateResidencyTicks::ON   8342469500                       # Cumulative time (in ticks) in various power states (Tick)
system.cpu.thread_0.numInsts                 10000001                       # Number of Instructions committed (Count)
system.cpu.thread_0.numOps                   10513116                       # Number of Ops committed (Count)
system.cpu.thread_0.numMemRefs                      0                       # Number of Memory References (Count)
system.cpu.workload.numSyscalls                    23                       # Number of system calls (Count)
system.cpu_clk_domain.clock                       500                       # Clock period in ticks (Tick)
system.cpu_voltage_domain.voltage                   1                       # Voltage in Volts (Volt)
system.l2.demandHits::cpu.inst                     97                       # number of demand (read+write) hits (Count)
system.l2.demandHits::cpu.data                    274                       # number of demand (read+write) hits (Count)
system.l2.demandHits::total                       371                       # number of demand (read+write) hits (Count)
system.l2.overallHits::cpu.inst                    97                       # number of overall hits (Count)
system.l2.overallHits::cpu.data                   274                       # number of overall hits (Count)
system.l2.overallHits::total                      371                       # number of overall hits (Count)
system.l2.demandMisses::cpu.inst                  574                       # number of demand (read+write) misses (Count)
system.l2.demandMisses::cpu.data                10660                       # number of demand (read+write) misses (Count)
system.l2.demandMisses::total                   11234                       # number of demand (read+write) misses (Count)
system.l2.overallMisses::cpu.inst                 574                       # number of overall misses (Count)
system.l2.overallMisses::cpu.data               10660                       # number of overall misses (Count)
system.l2.overallMisses::total                  11234                       # number of overall misses (Count)
system.l2.demandMissLatency::cpu.inst        43959000                       # number of demand (read+write) miss ticks (Tick)
system.l2.demandMissLatency::cpu.data       818827000                       # number of demand (read+write) miss ticks (Tick)
system.l2.demandMissLatency::total          862786000                       # number of demand (read+write) miss ticks (Tick)
system.l2.overallMissLatency::cpu.inst       43959000                       # number of overall miss ticks (Tick)
system.l2.overallMissLatency::cpu.data      818827000                       # number of overall miss ticks (Tick)
system.l2.overallMissLatency::total         862786000                       # number of overall miss ticks (Tick)
system.l2.demandAccesses::cpu.inst                671                       # number of demand (read+write) accesses (Count)
system.l2.demandAccesses::cpu.data              10934                       # number of demand (read+write) accesses (Count)
system.l2.demandAccesses::total                 11605                       # number of demand (read+write) accesses (Count)
system.l2.overallAccesses::cpu.inst               671                       # number of overall (read+write) accesses (Count)
system.l2.overallAccesses::cpu.data             10934                       # number of overall (read+write) accesses (Count)
system.l2.overallAccesses::total                11605                       # number of overall (read+write) accesses (Count)
system.l2.demandMissRate::cpu.inst           0.855440                       # miss rate for demand accesses (Ratio)
system.l2.demandMissRate::cpu.data           0.974941                       # miss rate for demand accesses (Ratio)
system.l2.demandMissRate::total              0.968031                       # miss rate for demand accesses (Ratio)
system.l2.overallMissRate::cpu.inst          0.855440                       # miss rate for overall accesses (Ratio)
system.l2.overallMissRate::cpu.data          0.974941                       # miss rate for overall accesses (Ratio)
system.l2.overallMissRate::total             0.968031                       # miss rate for overall accesses (Ratio)
system.l2.demandAvgMissLatency::cpu.inst 76583.623693                       # average overall miss latency in ticks ((Tick/Count))
system.l2.demandAvgMissLatency::cpu.data 76813.039400                       # average overall miss latency in ticks ((Tick/Count))
system.l2.demandAvgMissLatency::total    76801.317429                       # average overall miss latency in ticks ((Tick/Count))
system.l2.overallAvgMissLatency::cpu.inst 76583.623693                       # average overall miss latency ((Tick/Count))
system.l2.overallAvgMissLatency::cpu.data 76813.039400                       # average overall miss latency ((Tick/Count))
system.l2.overallAvgMissLatency::total   76801.317429                       # average overall miss latency ((Tick/Count))
system.l2.blockedCycles::no_mshrs                   0                       # number of cycles access was blocked (Cycle)
system.l2.blockedCycles::no_targets                 0                       # number of cycles access was blocked (Cycle)
system.l2.blockedCauses::no_mshrs                   0                       # number of times access was blocked (Count)
system.l2.blockedCauses::no_targets                 0                       # number of times access was blocked (Count)
system.l2.avgBlocked::no_mshrs                    nan                       # average number of cycles each access was blocked ((Cycle/Count))
system.l2.avgBlocked::no_targets                  nan                       # average number of cycles each access was blocked ((Cycle/Count))
system.l2.writebacks::writebacks                 1515                       # number of writebacks (Count)
system.l2.writebacks::total                      1515                       # number of writebacks (Count)
system.l2.demandMshrMisses::cpu.inst              574                       # number of demand (read+write) MSHR misses (Count)
system.l2.demandMshrMisses::cpu.data            10660                       # number of demand (read+write) MSHR misses (Count)
system.l2.demandMshrMisses::total               11234                       # number of demand (read+write) MSHR misses (Count)
system.l2.overallMshrMisses::cpu.inst             574                       # number of overall MSHR misses (Count)
system.l2.overallMshrMisses::cpu.data           10660                       # number of overall MSHR misses (Count)
system.l2.overallMshrMisses::total              11234                       # number of overall MSHR misses (Count)
system.l2.demandMshrMissLatency::cpu.inst     38219000                       # number of demand (read+write) MSHR miss ticks (Tick)
system.l2.demandMshrMissLatency::cpu.data    712227000                       # number of demand (read+write) MSHR miss ticks (Tick)
system.l2.demandMshrMissLatency::total      750446000                       # number of demand (read+write) MSHR miss ticks (Tick)
system.l2.overallMshrMissLatency::cpu.inst     38219000                       # number of overall MSHR miss ticks (Tick)
system.l2.overallMshrMissLatency::cpu.data    712227000                       # number of overall MSHR miss ticks (Tick)
system.l2.overallMshrMissLatency::total     750446000                       # number of overall MSHR miss ticks (Tick)
system.l2.demandMshrMissRate::cpu.inst       0.855440                       # mshr miss ratio for demand accesses (Ratio)
system.l2.demandMshrMissRate::cpu.data       0.974941                       # mshr miss ratio for demand accesses (Ratio)
system.l2.demandMshrMissRate::total          0.968031                       # mshr miss ratio for demand accesses (Ratio)
system.l2.overallMshrMissRate::cpu.inst      0.855440                       # mshr miss ratio for overall accesses (Ratio)
system.l2.overallMshrMissRate::cpu.data      0.974941                       # mshr miss ratio for overall accesses (Ratio)
system.l2.overallMshrMissRate::total         0.968031                       # mshr miss ratio for overall accesses (Ratio)
system.l2.demandAvgMshrMissLatency::cpu.inst 66583.623693                       # average overall mshr miss latency ((Tick/Count))
system.l2.demandAvgMshrMissLatency::cpu.data 66813.039400                       # average overall mshr miss latency ((Tick/Count))
system.l2.demandAvgMshrMissLatency::total 66801.317429                       # average overall mshr miss latency ((Tick/Count))
system.l2.overallAvgMshrMissLatency::cpu.inst 66583.623693                       # average overall mshr miss latency ((Tick/Count))
system.l2.overallAvgMshrMissLatency::cpu.data 66813.039400                       # average overall mshr miss latency ((Tick/Count))
system.l2.overallAvgMshrMissLatency::total 66801.317429                       # average overall mshr miss latency ((Tick/Count))
system.l2.replacements                           1544                       # number of replacements (Count)
system.l2.InvalidateReq.misses::cpu.data            7                       # number of InvalidateReq misses (Count)
system.l2.InvalidateReq.misses::total               7                       # number of InvalidateReq misses (Count)
system.l2.InvalidateReq.accesses::cpu.data            7                       # number of InvalidateReq accesses(hits+misses) (Count)
system.l2.InvalidateReq.accesses::total             7                       # number of InvalidateReq accesses(hits+misses) (Count)
system.l2.InvalidateReq.missRate::cpu.data            1                       # miss rate for InvalidateReq accesses (Ratio)
system.l2.InvalidateReq.missRate::total             1                       # miss rate for InvalidateReq accesses (Ratio)
system.l2.InvalidateReq.mshrMisses::cpu.data            7                       # number of InvalidateReq MSHR misses (Count)
system.l2.InvalidateReq.mshrMisses::total            7                       # number of InvalidateReq MSHR misses (Count)
system.l2.InvalidateReq.mshrMissLatency::cpu.data       132500                       # number of InvalidateReq MSHR miss ticks (Tick)
system.l2.InvalidateReq.mshrMissLatency::total       132500                       # number of InvalidateReq MSHR miss ticks (Tick)
system.l2.InvalidateReq.mshrMissRate::cpu.data            1                       # mshr miss rate for InvalidateReq accesses (Ratio)
system.l2.InvalidateReq.mshrMissRate::total            1                       # mshr miss rate for InvalidateReq accesses (Ratio)
system.l2.InvalidateReq.avgMshrMissLatency::cpu.data 18928.571429                       # average InvalidateReq mshr miss latency ((Tick/Count))
system.l2.InvalidateReq.avgMshrMissLatency::total 18928.571429                       # average InvalidateReq mshr miss latency ((Tick/Count))
system.l2.ReadCleanReq.hits::cpu.inst              97                       # number of ReadCleanReq hits (Count)
system.l2.ReadCleanReq.hits::total                 97                       # number of ReadCleanReq hits (Count)
system.l2.ReadCleanReq.misses::cpu.inst           574                       # number of ReadCleanReq misses (Count)
system.l2.ReadCleanReq.misses::total              574                       # number of ReadCleanReq misses (Count)
system.l2.ReadCleanReq.missLatency::cpu.inst     43959000                       # number of ReadCleanReq miss ticks (Tick)
system.l2.ReadCleanReq.missLatency::total     43959000                       # number of ReadCleanReq miss ticks (Tick)
system.l2.ReadCleanReq.accesses::cpu.inst          671                       # number of ReadCleanReq accesses(hits+misses) (Count)
system.l2.ReadCleanReq.accesses::total            671                       # number of ReadCleanReq accesses(hits+misses) (Count)
system.l2.ReadCleanReq.missRate::cpu.inst     0.855440                       # miss rate for ReadCleanReq accesses (Ratio)
system.l2.ReadCleanReq.missRate::total       0.855440                       # miss rate for ReadCleanReq accesses (Ratio)
system.l2.ReadCleanReq.avgMissLatency::cpu.inst 76583.623693                       # average ReadCleanReq miss latency ((Tick/Count))
system.l2.ReadCleanReq.avgMissLatency::total 76583.623693                       # average ReadCleanReq miss latency ((Tick/Count))
system.l2.ReadCleanReq.mshrMisses::cpu.inst          574                       # number of ReadCleanReq MSHR misses (Count)
system.l2.ReadCleanReq.mshrMisses::total          574                       # number of ReadCleanReq MSHR misses (Count)
system.l2.ReadCleanReq.mshrMissLatency::cpu.inst     38219000                       # number of ReadCleanReq MSHR miss ticks (Tick)
system.l2.ReadCleanReq.mshrMissLatency::total     38219000                       # number of ReadCleanReq MSHR miss ticks (Tick)
system.l2.ReadCleanReq.mshrMissRate::cpu.inst     0.855440                       # mshr miss rate for ReadCleanReq accesses (Ratio)
system.l2.ReadCleanReq.mshrMissRate::total     0.855440                       # mshr miss rate for ReadCleanReq accesses (Ratio)
system.l2.ReadCleanReq.avgMshrMissLatency::cpu.inst 66583.623693                       # average ReadCleanReq mshr miss latency ((Tick/Count))
system.l2.ReadCleanReq.avgMshrMissLatency::total 66583.623693                       # average ReadCleanReq mshr miss latency ((Tick/Count))
system.l2.ReadExReq.hits::cpu.data                 36                       # number of ReadExReq hits (Count)
system.l2.ReadExReq.hits::total                    36                       # number of ReadExReq hits (Count)
system.l2.ReadExReq.misses::cpu.data             6224                       # number of ReadExReq misses (Count)
system.l2.ReadExReq.misses::total                6224                       # number of ReadExReq misses (Count)
system.l2.ReadExReq.missLatency::cpu.data    491347500                       # number of ReadExReq miss ticks (Tick)
system.l2.ReadExReq.missLatency::total      491347500                       # number of ReadExReq miss ticks (Tick)
system.l2.ReadExReq.accesses::cpu.data           6260                       # number of ReadExReq accesses(hits+misses) (Count)
system.l2.ReadExReq.accesses::total              6260                       # number of ReadExReq accesses(hits+misses) (Count)
system.l2.ReadExReq.missRate::cpu.data       0.994249                       # miss rate for ReadExReq accesses (Ratio)
system.l2.ReadExReq.missRate::total          0.994249                       # miss rate for ReadExReq accesses (Ratio)
system.l2.ReadExReq.avgMissLatency::cpu.data 78944.007069                       # average ReadExReq miss latency ((Tick/Count))
system.l2.ReadExReq.avgMissLatency::total 78944.007069                       # average ReadExReq miss latency ((Tick/Count))
system.l2.ReadExReq.mshrMisses::cpu.data         6224                       # number of ReadExReq MSHR misses (Count)
system.l2.ReadExReq.mshrMisses::total            6224                       # number of ReadExReq MSHR misses (Count)
system.l2.ReadExReq.mshrMissLatency::cpu.data    429107500                       # number of ReadExReq MSHR miss ticks (Tick)
system.l2.ReadExReq.mshrMissLatency::total    429107500                       # number of ReadExReq MSHR miss ticks (Tick)
system.l2.ReadExReq.mshrMissRate::cpu.data     0.994249                       # mshr miss rate for ReadExReq accesses (Ratio)
system.l2.ReadExReq.mshrMissRate::total      0.994249                       # mshr miss rate for ReadExReq accesses (Ratio)
system.l2.ReadExReq.avgMshrMissLatency::cpu.data 68944.007069                       # average ReadExReq mshr miss latency ((Tick/Count))
system.l2.ReadExReq.avgMshrMissLatency::total 68944.007069                       # average ReadExReq mshr miss latency ((Tick/Count))
system.l2.ReadSharedReq.hits::cpu.data            238                       # number of ReadSharedReq hits (Count)
system.l2.ReadSharedReq.hits::total               238                       # number of ReadSharedReq hits (Count)
system.l2.ReadSharedReq.misses::cpu.data         4436                       # number of ReadSharedReq misses (Count)
system.l2.ReadSharedReq.misses::total            4436                       # number of ReadSharedReq misses (Count)
system.l2.ReadSharedReq.missLatency::cpu.data    327479500                       # number of ReadSharedReq miss ticks (Tick)
system.l2.ReadSharedReq.missLatency::total    327479500                       # number of ReadSharedReq miss ticks (Tick)
system.l2.ReadSharedReq.accesses::cpu.data         4674                       # number of ReadSharedReq accesses(hits+misses) (Count)
system.l2.ReadSharedReq.accesses::total          4674                       # number of ReadSharedReq accesses(hits+misses) (Count)
system.l2.ReadSharedReq.missRate::cpu.data     0.949080                       # miss rate for ReadSharedReq accesses (Ratio)
system.l2.ReadSharedReq.missRate::total      0.949080                       # miss rate for ReadSharedReq accesses (Ratio)
system.l2.ReadSharedReq.avgMissLatency::cpu.data 73823.151488                       # average ReadSharedReq miss latency ((Tick/Count))
system.l2.ReadSharedReq.avgMissLatency::total 73823.151488                       # average ReadSharedReq miss latency ((Tick/Count))
system.l2.ReadSharedReq.mshrMisses::cpu.data         4436                       # number of ReadSharedReq MSHR misses (Count)
system.l2.ReadSharedReq.mshrMisses::total         4436                       # number of ReadSharedReq MSHR misses (Count)
system.l2.ReadSharedReq.mshrMissLatency::cpu.data    283119500                       # number of ReadSharedReq MSHR miss ticks (Tick)
system.l2.ReadSharedReq.mshrMissLatency::total    283119500                       # number of ReadSharedReq MSHR miss ticks (Tick)
system.l2.ReadSharedReq.mshrMissRate::cpu.data     0.949080                       # mshr miss rate for ReadSharedReq accesses (Ratio)
system.l2.ReadSharedReq.mshrMissRate::total     0.949080                       # mshr miss rate for ReadSharedReq accesses (Ratio)
system.l2.ReadSharedReq.avgMshrMissLatency::cpu.data 63823.151488                       # average ReadSharedReq mshr miss latency ((Tick/Count))
system.l2.ReadSharedReq.avgMshrMissLatency::total 63823.151488                       # average ReadSharedReq mshr miss latency ((Tick/Count))
system.l2.WritebackClean.hits::writebacks          420                       # number of WritebackClean hits (Count)
system.l2.WritebackClean.hits::total              420                       # number of WritebackClean hits (Count)
system.l2.WritebackClean.accesses::writebacks          420                       # number of WritebackClean accesses(hits+misses) (Count)
system.l2.WritebackClean.accesses::total          420                       # number of WritebackClean accesses(hits+misses) (Count)
system.l2.WritebackDirty.hits::writebacks         5788                       # number of WritebackDirty hits (Count)
system.l2.WritebackDirty.hits::total             5788                       # number of WritebackDirty hits (Count)
system.l2.WritebackDirty.accesses::writebacks         5788                       # number of WritebackDirty accesses(hits+misses) (Count)
system.l2.WritebackDirty.accesses::total         5788                       # number of WritebackDirty accesses(hits+misses) (Count)
system.l2.power_state.pwrStateResidencyTicks::UNDEFINED   8342469500                       # Cumulative time (in ticks) in various power states (Tick)
system.l2.tags.tagsInUse                  6640.710817                       # Average ticks per tags in use ((Tick/Count))
system.l2.tags.totalRefs                        21941                       # Total number of references to valid blocks. (Count)
system.l2.tags.sampledRefs                      11249                       # Sample count of references to valid blocks. (Count)
system.l2.tags.avgRefs                       1.950484                       # Average number of references to valid blocks. ((Count/Count))
system.l2.tags.warmupTick                       77000                       # The tick when the warmup percentage was hit. (Tick)
system.l2.tags.occupancies::writebacks      13.634504                       # Average occupied blocks per tick, per requestor ((Count/Tick))
system.l2.tags.occupancies::cpu.inst       543.457318                       # Average occupied blocks per tick, per requestor ((Count/Tick))
system.l2.tags.occupancies::cpu.data      6083.618995                       # Average occupied blocks per tick, per requestor ((Count/Tick))
system.l2.tags.avgOccs::writebacks           0.000416                       # Average percentage of cache occupancy ((Ratio/Tick))
system.l2.tags.avgOccs::cpu.inst             0.016585                       # Average percentage of cache occupancy ((Ratio/Tick))
system.l2.tags.avgOccs::cpu.data             0.185657                       # Average percentage of cache occupancy ((Ratio/Tick))
system.l2.tags.avgOccs::total                0.202658                       # Average percentage of cache occupancy ((Ratio/Tick))
system.l2.tags.occupanciesTaskId::1024           9705                       # Occupied blocks per task id (Count)
system.l2.tags.ageTaskId_1024::0                    5                       # Occupied blocks per task id, per block age (Count)
system.l2.tags.ageTaskId_1024::1                  110                       # Occupied blocks per task id, per block age (Count)
system.l2.tags.ageTaskId_1024::2                  740                       # Occupied blocks per task id, per block age (Count)
system.l2.tags.ageTaskId_1024::3                 8850                       # Occupied blocks per task id, per block age (Count)
system.l2.tags.ratioOccsTaskId::1024         0.296173                       # Ratio of occupied blocks and all blocks, per task id (Ratio)
system.l2.tags.tagAccesses                     186833                       # Number of tag accesses (Count)
system.l2.tags.dataAccesses                    186833                       # Number of data accesses (Count)
system.l2.tags.power_state.pwrStateResidencyTicks::UNDEFINED   8342469500                       # Cumulative time (in ticks) in various power states (Tick)
system.mem_ctrls.avgPriority_writebacks::samples      1515.00                       # Average QoS priority value for accepted requests (Count)
system.mem_ctrls.avgPriority_cpu.inst::samples       574.00                       # Average QoS priority value for accepted requests (Count)
system.mem_ctrls.avgPriority_cpu.data::samples     10660.00                       # Average QoS priority value for accepted requests (Count)
system.mem_ctrls.priorityMinLatency      0.000000018750                       # per QoS priority minimum request to response latency (Second)
system.mem_ctrls.priorityMaxLatency      0.002919762500                       # per QoS priority maximum request to response latency (Second)
system.mem_ctrls.numReadWriteTurnArounds           91                       # Number of turnarounds from READ to WRITE (Count)
system.mem_ctrls.numWriteReadTurnArounds           91                       # Number of turnarounds from WRITE to READ (Count)
system.mem_ctrls.numStayReadState               25895                       # Number of times bus staying in READ state (Count)
system.mem_ctrls.numStayWriteState               1403                       # Number of times bus staying in WRITE state (Count)
system.mem_ctrls.readReqs                       11234                       # Number of read requests accepted (Count)
system.mem_ctrls.writeReqs                       1515                       # Number of write requests accepted (Count)
system.mem_ctrls.readBursts                     11234                       # Number of controller read bursts, including those serviced by the write queue (Count)
[...]
system.mem_ctrls.dram.perBankWrBursts::12          100                       # Per bank write bursts (Count)
system.mem_ctrls.dram.perBankWrBursts::13          104                       # Per bank write bursts (Count)
system.mem_ctrls.dram.perBankWrBursts::14          106                       # Per bank write bursts (Count)
system.mem_ctrls.dram.perBankWrBursts::15           91                       # Per bank write bursts (Count)
system.mem_ctrls.dram.totQLat                79462000                       # Total ticks spent queuing (Tick)
system.mem_ctrls.dram.totBusLat              56170000                       # Total ticks spent in databus transfers (Tick)
system.mem_ctrls.dram.totMemAccLat          290099500                       # Total ticks spent from burst creation until serviced by the DRAM (Tick)
system.mem_ctrls.dram.avgQLat                 7073.35                       # Average queueing delay per DRAM burst ((Tick/Count))
system.mem_ctrls.dram.avgBusLat               5000.00                       # Average bus latency per DRAM burst ((Tick/Count))
system.mem_ctrls.dram.avgMemAccLat           25823.35                       # Average memory access latency per DRAM burst ((Tick/Count))
system.mem_ctrls.dram.readRowHits                9217                       # Number of row buffer hits during reads (Count)
system.mem_ctrls.dram.writeRowHits               1221                       # Number of row buffer hits during writes (Count)
system.mem_ctrls.dram.readRowHitRate            82.05                       # Row buffer hit rate for reads (Ratio)
system.mem_ctrls.dram.writeRowHitRate           82.06                       # Row buffer hit rate for writes (Ratio)
system.mem_ctrls.dram.bytesPerActivate::samples         2283                       # Bytes accessed per row activation (Byte)
system.mem_ctrls.dram.bytesPerActivate::mean   356.583443                       # Bytes accessed per row activation (Byte)
system.mem_ctrls.dram.bytesPerActivate::gmean   274.827109                       # Bytes accessed per row activation (Byte)
system.mem_ctrls.dram.bytesPerActivate::stdev   256.731788                       # Bytes accessed per row activation (Byte)
system.mem_ctrls.dram.bytesPerActivate::0-127          202      8.85%      8.85% # Bytes accessed per row activation (Byte)
system.mem_ctrls.dram.bytesPerActivate::128-255          813     35.61%     44.46% # Bytes accessed per row activation (Byte)
system.mem_ctrls.dram.bytesPerActivate::256-383          327     14.32%     58.78% # Bytes accessed per row activation (Byte)
system.mem_ctrls.dram.bytesPerActivate::384-511           74      3.24%     62.02% # Bytes accessed per row activation (Byte)
system.mem_ctrls.dram.bytesPerActivate::512-639          645     28.25%     90.28% # Bytes accessed per row activation (Byte)
system.mem_ctrls.dram.bytesPerActivate::640-767           24      1.05%     91.33% # Bytes accessed per row activation (Byte)
system.mem_ctrls.dram.bytesPerActivate::768-895           14      0.61%     91.94% # Bytes accessed per row activation (Byte)
system.mem_ctrls.dram.bytesPerActivate::896-1023           17      0.74%     92.69% # Bytes accessed per row activation (Byte)
system.mem_ctrls.dram.bytesPerActivate::1024-1151          167      7.31%    100.00% # Bytes accessed per row activation (Byte)
system.mem_ctrls.dram.bytesPerActivate::total         2283                       # Bytes accessed per row activation (Byte)
system.mem_ctrls.dram.bytesRead                718976                       # Total bytes read (Byte)
system.mem_ctrls.dram.bytesWritten              95232                       # Total bytes written (Byte)
system.mem_ctrls.dram.avgRdBW               86.182635                       # Average DRAM read bandwidth in MiBytes/s ((Byte/Second))
system.mem_ctrls.dram.avgWrBW               11.415325                       # Average DRAM write bandwidth in MiBytes/s ((Byte/Second))
system.mem_ctrls.dram.peakBW                 12800.00                       # Theoretical peak bandwidth in MiByte/s ((Byte/Second))
system.mem_ctrls.dram.busUtil                    0.76                       # Data bus utilization in percentage (Ratio)
system.mem_ctrls.dram.busUtilRead                0.67                       # Data bus utilization in percentage for reads (Ratio)
system.mem_ctrls.dram.busUtilWrite               0.09                       # Data bus utilization in percentage for writes (Ratio)
system.mem_ctrls.dram.pageHitRate               82.05                       # Row buffer hit rate, read and write combined (Ratio)
system.mem_ctrls.dram.power_state.pwrStateResidencyTicks::UNDEFINED   8342469500                       # Cumulative time (in ticks) in various power states (Tick)
system.mem_ctrls.dram.rank0.actEnergy         7768320                       # Energy for activate commands per rank (pJ) (Joule)
system.mem_ctrls.dram.rank0.preEnergy         4125165                       # Energy for precharge commands per rank (pJ) (Joule)
system.mem_ctrls.dram.rank0.readEnergy       37813440                       # Energy for read commands per rank (pJ) (Joule)
system.mem_ctrls.dram.rank0.writeEnergy       3716640                       # Energy for write commands per rank (pJ) (Joule)
system.mem_ctrls.dram.rank0.refreshEnergy 658279440.000000                       # Energy for refresh commands per rank (pJ) (Joule)
system.mem_ctrls.dram.rank0.actBackEnergy   1440613440                       # Energy for active background per rank (pJ) (Joule)
system.mem_ctrls.dram.rank0.preBackEnergy   1990360320                       # Energy for precharge background per rank (pJ) (Joule)
system.mem_ctrls.dram.rank0.actPowerDownEnergy            0                       # Energy for active power-down per rank (pJ) (Joule)
system.mem_ctrls.dram.rank0.prePowerDownEnergy            0                       # Energy for precharge power-down per rank (pJ) (Joule)
system.mem_ctrls.dram.rank0.selfRefreshEnergy            0                       # Energy for self refresh per rank (pJ) (Joule)
system.mem_ctrls.dram.rank0.totalEnergy    4142676765                       # Total energy per rank (pJ) (Joule)
system.mem_ctrls.dram.rank0.averagePower   496.576795                       # Core power per rank (mW) (Watt)
system.mem_ctrls.dram.rank0.totalIdleTime            0                       # Total Idle time Per DRAM Rank (Tick)
system.mem_ctrls.dram.rank0.pwrStateTime::IDLE   5161443250                       # Time in different power states (Tick)
system.mem_ctrls.dram.rank0.pwrStateTime::REF    278460000                       # Time in different power states (Tick)
system.mem_ctrls.dram.rank0.pwrStateTime::SREF            0                       # Time in different power states (Tick)
system.mem_ctrls.dram.rank0.pwrStateTime::PRE_PDN            0                       # Time in different power states (Tick)
system.mem_ctrls.dram.rank0.pwrStateTime::ACT   2902566250                       # Time in different power states (Tick)
system.mem_ctrls.dram.rank0.pwrStateTime::ACT_PDN            0                       # Time in different power states (Tick)
system.mem_ctrls.dram.rank1.actEnergy         8539440                       # Energy for activate commands per rank (pJ) (Joule)
system.mem_ctrls.dram.rank1.preEnergy         4538820                       # Energy for precharge commands per rank (pJ) (Joule)
system.mem_ctrls.dram.rank1.readEnergy       42397320                       # Energy for read commands per rank (pJ) (Joule)
system.mem_ctrls.dram.rank1.writeEnergy       4050720                       # Energy for write commands per rank (pJ) (Joule)
system.mem_ctrls.dram.rank1.refreshEnergy 658279440.000000                       # Energy for refresh commands per rank (pJ) (Joule)
system.mem_ctrls.dram.rank1.actBackEnergy   2001885030                       # Energy for active background per rank (pJ) (Joule)
system.mem_ctrls.dram.rank1.preBackEnergy   1517710560                       # Energy for precharge background per rank (pJ) (Joule)
system.mem_ctrls.dram.rank1.actPowerDownEnergy            0                       # Energy for active power-down per rank (pJ) (Joule)
system.mem_ctrls.dram.rank1.prePowerDownEnergy            0                       # Energy for precharge power-down per rank (pJ) (Joule)
system.mem_ctrls.dram.rank1.selfRefreshEnergy            0                       # Energy for self refresh per rank (pJ) (Joule)
system.mem_ctrls.dram.rank1.totalEnergy    4237401330                       # Total energy per rank (pJ) (Joule)
system.mem_ctrls.dram.rank1.averagePower   507.931294                       # Core power per rank (mW) (Watt)
system.mem_ctrls.dram.rank1.totalIdleTime            0                       # Total Idle time Per DRAM Rank (Tick)
system.mem_ctrls.dram.rank1.pwrStateTime::IDLE   3927366750                       # Time in different power states (Tick)
system.mem_ctrls.dram.rank1.pwrStateTime::REF    278460000                       # Time in different power states (Tick)
system.mem_ctrls.dram.rank1.pwrStateTime::SREF            0                       # Time in different power states (Tick)
system.mem_ctrls.dram.rank1.pwrStateTime::PRE_PDN            0                       # Time in different power states (Tick)
system.mem_ctrls.dram.rank1.pwrStateTime::ACT   4136642750                       # Time in different power states (Tick)
system.mem_ctrls.dram.rank1.pwrStateTime::ACT_PDN            0                       # Time in different power states (Tick)
system.mem_ctrls.power_state.pwrStateResidencyTicks::UNDEFINED   8342469500                       # Cumulative time (in ticks) in various power states (Tick)
system.membus.transDist::ReadResp                5010                       # Transaction distribution (Count)
system.membus.transDist::WritebackDirty          1515                       # Transaction distribution (Count)
system.membus.transDist::CleanEvict                15                       # Transaction distribution (Count)
system.membus.transDist::ReadExReq               6224                       # Transaction distribution (Count)
system.membus.transDist::ReadExResp              6224                       # Transaction distribution (Count)
system.membus.transDist::ReadSharedReq           5010                       # Transaction distribution (Count)
system.membus.transDist::InvalidateReq              7                       # Transaction distribution (Count)
system.membus.pktCount_system.l2.mem_side_port::system.mem_ctrls.port        24005                       # Packet count per connected requestor and responder (Count)
system.membus.pktCount::total                   24005                       # Packet count per connected requestor and responder (Count)
system.membus.pktSize_system.l2.mem_side_port::system.mem_ctrls.port       815936                       # Cumulative packet size per connected requestor and responder (Byte)
system.membus.pktSize::total                   815936                       # Cumulative packet size per connected requestor and responder (Byte)
system.membus.snoops                                0                       # Total snoops (Count)
system.membus.snoopTraffic                          0                       # Total snoop traffic (Byte)
system.membus.snoopFanout::samples              11241                       # Request fanout histogram (Count)
system.membus.snoopFanout::mean                     0                       # Request fanout histogram (Count)
system.membus.snoopFanout::stdev                    0                       # Request fanout histogram (Count)
system.membus.snoopFanout::underflows               0      0.00%      0.00% # Request fanout histogram (Count)
system.membus.snoopFanout::0                    11241    100.00%    100.00% # Request fanout histogram (Count)
system.membus.snoopFanout::1                        0      0.00%    100.00% # Request fanout histogram (Count)
system.membus.snoopFanout::overflows                0      0.00%    100.00% # Request fanout histogram (Count)
system.membus.snoopFanout::min_value                0                       # Request fanout histogram (Count)
system.membus.snoopFanout::max_value                0                       # Request fanout histogram (Count)
system.membus.snoopFanout::total                11241                       # Request fanout histogram (Count)
system.membus.power_state.pwrStateResidencyTicks::UNDEFINED   8342469500                       # Cumulative time (in ticks) in various power states (Tick)
system.membus.reqLayer0.occupancy            20639500                       # Layer occupancy (ticks) (Tick)
system.membus.reqLayer0.utilization               0.0                       # Layer utilization (Ratio)
system.membus.respLayer1.occupancy           59537750                       # Layer occupancy (ticks) (Tick)
system.membus.respLayer1.utilization              0.0                       # Layer utilization (Ratio)
system.membus.snoop_filter.totRequests          12771                       # Total number of requests made to the snoop filter. (Count)
system.membus.snoop_filter.hitSingleRequests         1530                       # Number of requests hitting in the snoop filter with a single holder of the requested data. (Count)
system.membus.snoop_filter.hitMultiRequests            0                       # Number of requests hitting in the snoop filter with multiple (>1) holders of the requested data. (Count)
system.membus.snoop_filter.totSnoops                0                       # Total number of snoops made to the snoop filter. (Count)
system.membus.snoop_filter.hitSingleSnoops            0                       # Number of snoops hitting in the snoop filter with a single holder of the requested data. (Count)
system.membus.snoop_filter.hitMultiSnoops            0                       # Number of snoops hitting in the snoop filter with multiple (>1) holders of the requested data. (Count)
system.tol2bus.transDist::ReadResp               5345                       # Transaction distribution (Count)
system.tol2bus.transDist::WritebackDirty         7303                       # Transaction distribution (Count)
system.tol2bus.transDist::WritebackClean          420                       # Transaction distribution (Count)
system.tol2bus.transDist::CleanEvict             4158                       # Transaction distribution (Count)
system.tol2bus.transDist::ReadExReq              6260                       # Transaction distribution (Count)
system.tol2bus.transDist::ReadExResp             6260                       # Transaction distribution (Count)
system.tol2bus.transDist::ReadCleanReq            671                       # Transaction distribution (Count)
system.tol2bus.transDist::ReadSharedReq          4674                       # Transaction distribution (Count)
system.tol2bus.transDist::InvalidateReq             7                       # Transaction distribution (Count)
system.tol2bus.transDist::InvalidateResp            7                       # Transaction distribution (Count)
system.tol2bus.pktCount_system.cpu.icache.mem_side_port::system.l2.cpu_side_port         1762                       # Packet count per connected requestor and responder (Count)
system.tol2bus.pktCount_system.cpu.dcache.mem_side_port::system.l2.cpu_side_port        31799                       # Packet count per connected requestor and responder (Count)
system.tol2bus.pktCount::total                  33561                       # Packet count per connected requestor and responder (Count)
system.tol2bus.pktSize_system.cpu.icache.mem_side_port::system.l2.cpu_side_port        69824                       # Cumulative packet size per connected requestor and responder (Byte)
system.tol2bus.pktSize_system.cpu.dcache.mem_side_port::system.l2.cpu_side_port      1070208                       # Cumulative packet size per connected requestor and responder (Byte)
system.tol2bus.pktSize::total                 1140032                       # Cumulative packet size per connected requestor and responder (Byte)
system.tol2bus.snoops                            1544                       # Total snoops (Count)
system.tol2bus.snoopTraffic                     96960                       # Total snoop traffic (Byte)
system.tol2bus.snoopFanout::samples             13156                       # Request fanout histogram (Count)
system.tol2bus.snoopFanout::mean             0.001140                       # Request fanout histogram (Count)
system.tol2bus.snoopFanout::stdev            0.033748                       # Request fanout histogram (Count)
system.tol2bus.snoopFanout::underflows              0      0.00%      0.00% # Request fanout histogram (Count)
system.tol2bus.snoopFanout::0                   13141     99.89%     99.89% # Request fanout histogram (Count)
system.tol2bus.snoopFanout::1                      15      0.11%    100.00% # Request fanout histogram (Count)
system.tol2bus.snoopFanout::2                       0      0.00%    100.00% # Request fanout histogram (Count)
system.tol2bus.snoopFanout::overflows               0      0.00%    100.00% # Request fanout histogram (Count)
system.tol2bus.snoopFanout::min_value               0                       # Request fanout histogram (Count)
system.tol2bus.snoopFanout::max_value               1                       # Request fanout histogram (Count)
system.tol2bus.snoopFanout::total               13156                       # Request fanout histogram (Count)
system.tol2bus.power_state.pwrStateResidencyTicks::UNDEFINED   8342469500                       # Cumulative time (in ticks) in various power states (Tick)
system.tol2bus.reqLayer0.occupancy           17182500                       # Layer occupancy (ticks) (Tick)
system.tol2bus.reqLayer0.utilization              0.0                       # Layer utilization (Ratio)
system.tol2bus.respLayer0.occupancy           1006500                       # Layer occupancy (ticks) (Tick)
system.tol2bus.respLayer0.utilization             0.0                       # Layer utilization (Ratio)
system.tol2bus.respLayer1.occupancy          16404500                       # Layer occupancy (ticks) (Tick)
system.tol2bus.respLayer1.utilization             0.0                       # Layer utilization (Ratio)
system.tol2bus.snoop_filter.totRequests         21949                       # Total number of requests made to the snoop filter. (Count)
system.tol2bus.snoop_filter.hitSingleRequests        10337                       # Number of requests hitting in the snoop filter with a single holder of the requested data. (Count)
system.tol2bus.snoop_filter.hitMultiRequests            1                       # Number of requests hitting in the snoop filter with multiple (>1) holders of the requested data. (Count)
system.tol2bus.snoop_filter.totSnoops              14                       # Total number of snoops made to the snoop filter. (Count)
system.tol2bus.snoop_filter.hitSingleSnoops           14                       # Number of snoops hitting in the snoop filter with a single holder of the requested data. (Count)
system.tol2bus.snoop_filter.hitMultiSnoops            0                       # Number of snoops hitting in the snoop filter with multiple (>1) holders of the requested data. (Count)
system.voltage_domain.voltage                       1                       # Voltage in Volts (Volt)
system.workload.inst.arm                            0                       # number of arm instructions executed (Count)
system.workload.inst.quiesce                        0                       # number of quiesce instructions executed (Count)
system.cpu.idleCycles                         1171921                       # Total number of cycles that the object has spent stopped (Unspecified)
system.cpu.tickCycles                        15513018                       # Number of cycles that the object actually ticked (Unspecified)

---------- End Simulation Statistics   ----------
