
---------- Begin Simulation Statistics ----------
simSeconds                                   0.026885                       # Number of seconds simulated (Second)
simTicks                                  26885053500                       # Number of ticks simulated (Tick)
finalTick                                 26885053500                       # Number of ticks from beginning of simulation (restored from checkpoints and never reset) (Tick)
simFreq                                  1000000000000                       # The number of ticks per simulated second ((Tick/Second))
hostSeconds                                     27.02                       # Real time elapsed on the host (Second)
hostTickRate                                995042098                       # The number of ticks simulated per host second (ticks/s) ((Tick/Second))
hostMemory                                    8735188                       # Number of bytes of host memory used (Byte)
simInsts                                     10000000                       # Number of instructions simulated (Count)
simOps                                       10027184                       # Number of ops (including micro ops) simulated (Count)
hostInstRate                                   370100                       # Simulator instruction rate (inst/s) ((Count/Second))
hostOpRate                                     371101                       # Simulator op (including micro ops) rate (op/s) ((Count/Second))
system.clk_domain.clock                          1000                       # Clock period in ticks (Tick)
system.cpu.numCycles                         53770107                       # Number of cpu cycles simulated (Cycle)
system.cpu.numWorkItemsStarted                      0                       # Number of work items this cpu started (Count)
system.cpu.numWorkItemsCompleted                    0                       # Number of work items this cpu completed (Count)
system.cpu.numInsts                          10000000                       # Number of instructions committed (Count)
system.cpu.numOps                            10027184                       # Number of ops (including micro ops) committed (Count)
system.cpu.numDiscardedOps                     102515                       # Number of ops (including micro ops) which were discarded before commit (Count)
system.cpu.numFetchSuspends                         0                       # Number of times Execute suspended instruction fetching (Count)
system.cpu.cpi                               5.377011                       # CPI: cycles per instruction ((Cycle/Count))
system.cpu.ipc                               0.185977                       # IPC: instructions per cycle ((Count/Cycle))
system.cpu.committedInstType_0::No_OpClass            3      0.00%      0.00% # Class of committed instruction (Count)
system.cpu.committedInstType_0::IntAlu        7536944     75.17%     75.17% # Class of committed instruction (Count)
system.cpu.committedInstType_0::IntMult           384      0.00%     75.17% # Class of committed instruction (Count)
system.cpu.committedInstType_0::IntDiv             94      0.00%     75.17% # Class of committed instruction (Count)
system.cpu.committedInstType_0::FloatAdd            8      0.00%     75.17% # Class of committed instruction (Count)
system.cpu.committedInstType_0::FloatCmp            0      0.00%     75.17% # Class of committed instruction (Count)
system.cpu.committedInstType_0::FloatCvt            0      0.00%     75.17% # Class of committed instruction (Count)
system.cpu.committedInstType_0::FloatMult            0      0.00%     75.17% # Class of committed instruction (Count)
system.cpu.committedInstType_0::FloatMultAcc            0      0.00%     75.17% # Class of committed instruction (Count)
system.cpu.committedInstType_0::FloatDiv            0      0.00%     75.17% # Class of committed instruction (Count)
system.cpu.committedInstType_0::FloatMisc           32      0.00%     75.17% # Class of committed instruction (Count)
system.cpu.committedInstType_0::FloatSqrt            0      0.00%     75.17% # Class of committed instruction (Count)
system.cpu.committedInstType_0::SimdAdd            15      0.00%     75.17% # Class of committed instruction (Count)
system.cpu.committedInstType_0::SimdAddAcc            0      0.00%     75.17% # Class of committed instruction (Count)
system.cpu.committedInstType_0::SimdAlu            10      0.00%     75.17% # Class of committed instruction (Count)
system.cpu.committedInstType_0::SimdCmp            12      0.00%     75.17% # Class of committed instruction (Count)
system.cpu.committedInstType_0::SimdCvt             0      0.00%     75.17% # Class of committed instruction (Count)
system.cpu.committedInstType_0::SimdMisc           72      0.00%     75.17% # Class of committed instruction (Count)
system.cpu.committedInstType_0::SimdMult            0      0.00%     75.17% # Class of committed instruction (Count)
system.cpu.committedInstType_0::SimdMultAcc            0      0.00%     75.17% # Class of committed instruction (Count)
system.cpu.committedInstType_0::SimdShift            0      0.00%     75.17% # Class of committed instruction (Count)
system.cpu.committedInstType_0::SimdShiftAcc            0      0.00%     75.17% # Class of committed instruction (Count)
system.cpu.committedInstType_0::SimdDiv             0      0.00%     75.17% # Class of committed instruction (Count)
system.cpu.committedInstType_0::SimdSqrt            0      0.00%     75.17% # Class of committed instruction (Count)
system.cpu.committedInstType_0::SimdFloatAdd            0      0.00%     75.17% # Class of committed instruction (Count)
system.cpu.committedInstType_0::SimdFloatAlu            0      0.00%     75.17% # Class of committed instruction (Count)
system.cpu.committedInstType_0::SimdFloatCmp            0      0.00%     75.17% # Class of committed instruction (Count)
system.cpu.committedInstType_0::SimdFloatCvt            0      0.00%     75.17% # Class of committed instruction (Count)
system.cpu.committedInstType_0::SimdFloatDiv            0      0.00%     75.17% # Class of committed instruction (Count)
system.cpu.committedInstType_0::SimdFloatMisc            0      0.00%     75.17% # Class of committed instruction (Count)
system.cpu.committedInstType_0::SimdFloatMult            0      0.00%     75.17% # Class of committed instruction (Count)
system.cpu.committedInstType_0::SimdFloatMultAcc            0      0.00%     75.17% # Class of committed instruction (Count)
system.cpu.committedInstType_0::SimdFloatSqrt            0      0.00%     75.17% # Class of committed instruction (Count)
system.cpu.committedInstType_0::SimdReduceAdd            0      0.00%     75.17% # Class of committed instruction (Count)
system.cpu.committedInstType_0::SimdReduceAlu            0      0.00%     75.17% # Class of committed instruction (Count)
system.cpu.committedInstType_0::SimdReduceCmp            0      0.00%     75.17% # Class of committed instruction (Count)
system.cpu.committedInstType_0::SimdFloatReduceAdd            0      0.00%     75.17% # Class of committed instruction (Count)
system.cpu.committedInstType_0::SimdFloatReduceCmp            0      0.00%     75.17% # Class of committed instruction (Count)
system.cpu.committedInstType_0::SimdAes             0      0.00%     75.17% # Class of committed instruction (Count)
system.cpu.committedInstType_0::SimdAesMix            0      0.00%     75.17% # Class of committed instruction (Count)
system.cpu.committedInstType_0::SimdSha1Hash            0      0.00%     75.17% # Class of committed instruction (Count)
system.cpu.committedInstType_0::SimdSha1Hash2            0      0.00%     75.17% # Class of committed instruction (Count)
system.cpu.committedInstType_0::SimdSha256Hash            0      0.00%     75.17% # Class of committed instruction (Count)
system.cpu.committedInstType_0::SimdSha256Hash2            0      0.00%     75.17% # Class of committed instruction (Count)
system.cpu.committedInstType_0::SimdShaSigma2            0      0.00%     75.17% # Class of committed instruction (Count)
system.cpu.committedInstType_0::SimdShaSigma3            0      0.00%     75.17% # Class of committed instruction (Count)
system.cpu.committedInstType_0::SimdPredAlu            0      0.00%     75.17% # Class of committed instruction (Count)
system.cpu.committedInstType_0::MemRead         35385      0.35%     75.52% # Class of committed instruction (Count)
system.cpu.committedInstType_0::MemWrite      2454225     24.48%    100.00% # Class of committed instruction (Count)
system.cpu.committedInstType_0::FloatMemRead            0      0.00%    100.00% # Class of committed instruction (Count)
system.cpu.committedInstType_0::FloatMemWrite            0      0.00%    100.00% # Class of committed instruction (Count)
system.cpu.committedInstType_0::IprAccess            0      0.00%    100.00% # Class of committed instruction (Count)
system.cpu.committedInstType_0::InstPrefetch            0      0.00%    100.00% # Class of committed instruction (Count)
system.cpu.committedInstType_0::total        10027184                       # Class of committed instruction (Count)
system.cpu.branchPred.lookups                 2609959                       # Number of BP lookups (Count)
system.cpu.branchPred.condPredicted           2596775                       # Number of conditional branches predicted (Count)
system.cpu.branchPred.condIncorrect             22300                       # Number of conditional branches incorrect (Count)
system.cpu.branchPred.BTBLookups              2569037                       # Number of BTB lookups (Count)
system.cpu.branchPred.BTBHits                 2566560                       # Number of BTB hits (Count)
system.cpu.branchPred.BTBHitRatio            0.999036                       # BTB Hit Ratio (Ratio)
system.cpu.branchPred.RASUsed                    5129                       # Number of times the RAS was used to get a target. (Count)
system.cpu.branchPred.RASIncorrect                403                       # Number of incorrect RAS predictions. (Count)
system.cpu.branchPred.indirectLookups            1964                       # Number of indirect predictor lookups. (Count)
system.cpu.branchPred.indirectHits               1496                       # Number of indirect target hits. (Count)
system.cpu.branchPred.indirectMisses              468                       # Number of indirect misses. (Count)
system.cpu.branchPred.indirectMispredicted          320                       # Number of mispredicted indirect branches. (Count)
system.cpu.dcache.demandHits::cpu.data        1879116                       # number of demand (read+write) hits (Count)
system.cpu.dcache.demandHits::total           1879116                       # number of demand (read+write) hits (Count)
system.cpu.dcache.overallHits::cpu.data       1879247                       # number of overall hits (Count)
system.cpu.dcache.overallHits::total          1879247                       # number of overall hits (Count)
system.cpu.dcache.demandMisses::cpu.data       606229                       # number of demand (read+write) misses (Count)
system.cpu.dcache.demandMisses::total          606229                       # number of demand (read+write) misses (Count)
system.cpu.dcache.overallMisses::cpu.data       606237                       # number of overall misses (Count)
system.cpu.dcache.overallMisses::total         606237                       # number of overall misses (Count)
system.cpu.dcache.demandMissLatency::cpu.data  49863373000                       # number of demand (read+write) miss ticks (Tick)
system.cpu.dcache.demandMissLatency::total  49863373000                       # number of demand (read+write) miss ticks (Tick)
system.cpu.dcache.overallMissLatency::cpu.data  49863373000                       # number of overall miss ticks (Tick)
system.cpu.dcache.overallMissLatency::total  49863373000                       # number of overall miss ticks (Tick)
system.cpu.dcache.demandAccesses::cpu.data      2485345                       # number of demand (read+write) accesses (Count)
system.cpu.dcache.demandAccesses::total       2485345                       # number of demand (read+write) accesses (Count)
system.cpu.dcache.overallAccesses::cpu.data      2485484                       # number of overall (read+write) accesses (Count)
system.cpu.dcache.overallAccesses::total      2485484                       # number of overall (read+write) accesses (Count)
system.cpu.dcache.demandMissRate::cpu.data     0.243921                       # miss rate for demand accesses (Ratio)
system.cpu.dcache.demandMissRate::total      0.243921                       # miss rate for demand accesses (Ratio)
system.cpu.dcache.overallMissRate::cpu.data     0.243911                       # miss rate for overall accesses (Ratio)
system.cpu.dcache.overallMissRate::total     0.243911                       # miss rate for overall accesses (Ratio)
system.cpu.dcache.demandAvgMissLatency::cpu.data 82251.711812                       # average overall miss latency in ticks ((Tick/Count))
system.cpu.dcache.demandAvgMissLatency::total 82251.711812                       # average overall miss latency in ticks ((Tick/Count))
system.cpu.dcache.overallAvgMissLatency::cpu.data 82250.626405                       # average overall miss latency ((Tick/Count))
system.cpu.dcache.overallAvgMissLatency::total 82250.626405                       # average overall miss latency ((Tick/Count))
system.cpu.dcache.blockedCycles::no_mshrs            0                       # number of cycles access was blocked (Cycle)
system.cpu.dcache.blockedCycles::no_targets            0                       # number of cycles access was blocked (Cycle)
system.cpu.dcache.blockedCauses::no_mshrs            0                       # number of times access was blocked (Count)
system.cpu.dcache.blockedCauses::no_targets            0                       # number of times access was blocked (Count)
system.cpu.dcache.avgBlocked::no_mshrs            nan                       # average number of cycles each access was blocked ((Cycle/Count))
system.cpu.dcache.avgBlocked::no_targets          nan                       # average number of cycles each access was blocked ((Cycle/Count))
system.cpu.dcache.writebacks::writebacks       302086                       # number of writebacks (Count)
system.cpu.dcache.writebacks::total            302086                       # number of writebacks (Count)
system.cpu.dcache.demandMshrHits::cpu.data       302932                       # number of demand (read+write) MSHR hits (Count)
system.cpu.dcache.demandMshrHits::total        302932                       # number of demand (read+write) MSHR hits (Count)
system.cpu.dcache.overallMshrHits::cpu.data       302932                       # number of overall MSHR hits (Count)
system.cpu.dcache.overallMshrHits::total       302932                       # number of overall MSHR hits (Count)
system.cpu.dcache.demandMshrMisses::cpu.data       303297                       # number of demand (read+write) MSHR misses (Count)
system.cpu.dcache.demandMshrMisses::total       303297                       # number of demand (read+write) MSHR misses (Count)
system.cpu.dcache.overallMshrMisses::cpu.data       303305                       # number of overall MSHR misses (Count)
system.cpu.dcache.overallMshrMisses::total       303305                       # number of overall MSHR misses (Count)
system.cpu.dcache.demandMshrMissLatency::cpu.data  24651575000                       # number of demand (read+write) MSHR miss ticks (Tick)
system.cpu.dcache.demandMshrMissLatency::total  24651575000                       # number of demand (read+write) MSHR miss ticks (Tick)
system.cpu.dcache.overallMshrMissLatency::cpu.data  24652175000                       # number of overall MSHR miss ticks (Tick)
system.cpu.dcache.overallMshrMissLatency::total  24652175000                       # number of overall MSHR miss ticks (Tick)
system.cpu.dcache.demandMshrMissRate::cpu.data     0.122034                       # mshr miss ratio for demand accesses (Ratio)
system.cpu.dcache.demandMshrMissRate::total     0.122034                       # mshr miss ratio for demand accesses (Ratio)
system.cpu.dcache.overallMshrMissRate::cpu.data     0.122031                       # mshr miss ratio for overall accesses (Ratio)
system.cpu.dcache.overallMshrMissRate::total     0.122031                       # mshr miss ratio for overall accesses (Ratio)
system.cpu.dcache.demandAvgMshrMissLatency::cpu.data 81278.664148                       # average overall mshr miss latency ((Tick/Count))
system.cpu.dcache.demandAvgMshrMissLatency::total 81278.664148                       # average overall mshr miss latency ((Tick/Count))
system.cpu.dcache.overallAvgMshrMissLatency::cpu.data 81278.498541                       # average overall mshr miss latency ((Tick/Count))
system.cpu.dcache.overallAvgMshrMissLatency::total 81278.498541                       # average overall mshr miss latency ((Tick/Count))
system.cpu.dcache.replacements                 302282                       # number of replacements (Count)
system.cpu.dcache.LoadLockedReq.hits::cpu.data          137                       # number of LoadLockedReq hits (Count)
system.cpu.dcache.LoadLockedReq.hits::total          137                       # number of LoadLockedReq hits (Count)
system.cpu.dcache.LoadLockedReq.misses::cpu.data            1                       # number of LoadLockedReq misses (Count)
system.cpu.dcache.LoadLockedReq.misses::total            1                       # number of LoadLockedReq misses (Count)
system.cpu.dcache.LoadLockedReq.missLatency::cpu.data        86500                       # number of LoadLockedReq miss ticks (Tick)
system.cpu.dcache.LoadLockedReq.missLatency::total        86500                       # number of LoadLockedReq miss ticks (Tick)
system.cpu.dcache.LoadLockedReq.accesses::cpu.data          138                       # number of LoadLockedReq accesses(hits+misses) (Count)
system.cpu.dcache.LoadLockedReq.accesses::total          138                       # number of LoadLockedReq accesses(hits+misses) (Count)
system.cpu.dcache.LoadLockedReq.missRate::cpu.data     0.007246                       # miss rate for LoadLockedReq accesses (Ratio)
system.cpu.dcache.LoadLockedReq.missRate::total     0.007246                       # miss rate for LoadLockedReq accesses (Ratio)
system.cpu.dcache.LoadLockedReq.avgMissLatency::cpu.data        86500                       # average LoadLockedReq miss latency ((Tick/Count))
system.cpu.dcache.LoadLockedReq.avgMissLatency::total        86500                       # average LoadLockedReq miss latency ((Tick/Count))
system.cpu.dcache.LoadLockedReq.mshrMisses::cpu.data            1                       # number of LoadLockedReq MSHR misses (Count)
system.cpu.dcache.LoadLockedReq.mshrMisses::total            1                       # number of LoadLockedReq MSHR misses (Count)
system.cpu.dcache.LoadLockedReq.mshrMissLatency::cpu.data        85500                       # number of LoadLockedReq MSHR miss ticks (Tick)
system.cpu.dcache.LoadLockedReq.mshrMissLatency::total        85500                       # number of LoadLockedReq MSHR miss ticks (Tick)
system.cpu.dcache.LoadLockedReq.mshrMissRate::cpu.data     0.007246                       # mshr miss rate for LoadLockedReq accesses (Ratio)
system.cpu.dcache.LoadLockedReq.mshrMissRate::total     0.007246                       # mshr miss rate for LoadLockedReq accesses (Ratio)
system.cpu.dcache.LoadLockedReq.avgMshrMissLatency::cpu.data        85500                       # average LoadLockedReq mshr miss latency ((Tick/Count))
system.cpu.dcache.LoadLockedReq.avgMshrMissLatency::total        85500                       # average LoadLockedReq mshr miss latency ((Tick/Count))
system.cpu.dcache.ReadReq.hits::cpu.data        35727                       # number of ReadReq hits (Count)
system.cpu.dcache.ReadReq.hits::total           35727                       # number of ReadReq hits (Count)
system.cpu.dcache.ReadReq.misses::cpu.data          270                       # number of ReadReq misses (Count)
system.cpu.dcache.ReadReq.misses::total           270                       # number of ReadReq misses (Count)
system.cpu.dcache.ReadReq.missLatency::cpu.data     13953500                       # number of ReadReq miss ticks (Tick)
system.cpu.dcache.ReadReq.missLatency::total     13953500                       # number of ReadReq miss ticks (Tick)
system.cpu.dcache.ReadReq.accesses::cpu.data        35997                       # number of ReadReq accesses(hits+misses) (Count)
system.cpu.dcache.ReadReq.accesses::total        35997                       # number of ReadReq accesses(hits+misses) (Count)
system.cpu.dcache.ReadReq.missRate::cpu.data     0.007501                       # miss rate for ReadReq accesses (Ratio)
system.cpu.dcache.ReadReq.missRate::total     0.007501                       # miss rate for ReadReq accesses (Ratio)
system.cpu.dcache.ReadReq.avgMissLatency::cpu.data 51679.629630                       # average ReadReq miss latency ((Tick/Count))
system.cpu.dcache.ReadReq.avgMissLatency::total 51679.629630                       # average ReadReq miss latency ((Tick/Count))
system.cpu.dcache.ReadReq.mshrHits::cpu.data           14                       # number of ReadReq MSHR hits (Count)
system.cpu.dcache.ReadReq.mshrHits::total           14                       # number of ReadReq MSHR hits (Count)
system.cpu.dcache.ReadReq.mshrMisses::cpu.data          256                       # number of ReadReq MSHR misses (Count)
system.cpu.dcache.ReadReq.mshrMisses::total          256                       # number of ReadReq MSHR misses (Count)
system.cpu.dcache.ReadReq.mshrMissLatency::cpu.data     12717000                       # number of ReadReq MSHR miss ticks (Tick)
system.cpu.dcache.ReadReq.mshrMissLatency::total     12717000                       # number of ReadReq MSHR miss ticks (Tick)
system.cpu.dcache.ReadReq.mshrMissRate::cpu.data     0.007112                       # mshr miss rate for ReadReq accesses (Ratio)
system.cpu.dcache.ReadReq.mshrMissRate::total     0.007112                       # mshr miss rate for ReadReq accesses (Ratio)
system.cpu.dcache.ReadReq.avgMshrMissLatency::cpu.data 49675.781250                       # average ReadReq mshr miss latency ((Tick/Count))
system.cpu.dcache.ReadReq.avgMshrMissLatency::total 49675.781250                       # average ReadReq mshr miss latency ((Tick/Count))
system.cpu.dcache.SoftPFReq.hits::cpu.data          131                       # number of SoftPFReq hits (Count)
system.cpu.dcache.SoftPFReq.hits::total           131                       # number of SoftPFReq hits (Count)
system.cpu.dcache.SoftPFReq.misses::cpu.data            8                       # number of SoftPFReq misses (Count)
system.cpu.dcache.SoftPFReq.misses::total            8                       # number of SoftPFReq misses (Count)
system.cpu.dcache.SoftPFReq.accesses::cpu.data          139                       # number of SoftPFReq accesses(hits+misses) (Count)
system.cpu.dcache.SoftPFReq.accesses::total          139                       # number of SoftPFReq accesses(hits+misses) (Count)
system.cpu.dcache.SoftPFReq.missRate::cpu.data     0.057554                       # miss rate for SoftPFReq accesses (Ratio)
system.cpu.dcache.SoftPFReq.missRate::total     0.057554                       # miss rate for SoftPFReq accesses (Ratio)
system.cpu.dcache.SoftPFReq.mshrMisses::cpu.data            8                       # number of SoftPFReq MSHR misses (Count)
system.cpu.dcache.SoftPFReq.mshrMisses::total            8                       # number of SoftPFReq MSHR misses (Count)
system.cpu.dcache.SoftPFReq.mshrMissLatency::cpu.data       600000                       # number of SoftPFReq MSHR miss ticks (Tick)
system.cpu.dcache.SoftPFReq.mshrMissLatency::total       600000                       # number of SoftPFReq MSHR miss ticks (Tick)
system.cpu.dcache.SoftPFReq.mshrMissRate::cpu.data     0.057554                       # mshr miss rate for SoftPFReq accesses (Ratio)
system.cpu.dcache.SoftPFReq.mshrMissRate::total     0.057554                       # mshr miss rate for SoftPFReq accesses (Ratio)
system.cpu.dcache.SoftPFReq.avgMshrMissLatency::cpu.data        75000                       # average SoftPFReq mshr miss latency ((Tick/Count))
system.cpu.dcache.SoftPFReq.avgMshrMissLatency::total        75000                       # average SoftPFReq mshr miss latency ((Tick/Count))
system.cpu.dcache.StoreCondReq.hits::cpu.data          138                       # number of StoreCondReq hits (Count)
system.cpu.dcache.StoreCondReq.hits::total          138                       # number of StoreCondReq hits (Count)
system.cpu.dcache.StoreCondReq.accesses::cpu.data          138                       # number of StoreCondReq accesses(hits+misses) (Count)
system.cpu.dcache.StoreCondReq.accesses::total          138                       # number of StoreCondReq accesses(hits+misses) (Count)
system.cpu.dcache.WriteLineReq.hits::cpu.data           44                       # number of WriteLineReq hits (Count)
system.cpu.dcache.WriteLineReq.hits::total           44                       # number of WriteLineReq hits (Count)
system.cpu.dcache.WriteLineReq.misses::cpu.data           58                       # number of WriteLineReq misses (Count)
system.cpu.dcache.WriteLineReq.misses::total           58                       # number of WriteLineReq misses (Count)
system.cpu.dcache.WriteLineReq.missLatency::cpu.data      1823000                       # number of WriteLineReq miss ticks (Tick)
system.cpu.dcache.WriteLineReq.missLatency::total      1823000                       # number of WriteLineReq miss ticks (Tick)
system.cpu.dcache.WriteLineReq.accesses::cpu.data          102                       # number of WriteLineReq accesses(hits+misses) (Count)
system.cpu.dcache.WriteLineReq.accesses::total          102                       # number of WriteLineReq accesses(hits+misses) (Count)
system.cpu.dcache.WriteLineReq.missRate::cpu.data     0.568627                       # miss rate for WriteLineReq accesses (Ratio)
system.cpu.dcache.WriteLineReq.missRate::total     0.568627                       # miss rate for WriteLineReq accesses (Ratio)
system.cpu.dcache.WriteLineReq.avgMissLatency::cpu.data 31431.034483                       # average WriteLineReq miss latency ((Tick/Count))
system.cpu.dcache.WriteLineReq.avgMissLatency::total 31431.034483                       # average WriteLineReq miss latency ((Tick/Count))
system.cpu.dcache.WriteLineReq.mshrMisses::cpu.data           58                       # number of WriteLineReq MSHR misses (Count)
system.cpu.dcache.WriteLineReq.mshrMisses::total           58                       # number of WriteLineReq MSHR misses (Count)
system.cpu.dcache.WriteLineReq.mshrMissLatency::cpu.data      1765000                       # number of WriteLineReq MSHR miss ticks (Tick)
system.cpu.dcache.WriteLineReq.mshrMissLatency::total      1765000                       # number of WriteLineReq MSHR miss ticks (Tick)
system.cpu.dcache.WriteLineReq.mshrMissRate::cpu.data     0.568627                       # mshr miss rate for WriteLineReq accesses (Ratio)
system.cpu.dcache.WriteLineReq.mshrMissRate::total     0.568627                       # mshr miss rate for WriteLineReq accesses (Ratio)
system.cpu.dcache.WriteLineReq.avgMshrMissLatency::cpu.data 30431.034483                       # average WriteLineReq mshr miss latency ((Tick/Count))
system.cpu.dcache.WriteLineReq.avgMshrMissLatency::total 30431.034483                       # average WriteLineReq mshr miss latency ((Tick/Count))
system.cpu.dcache.WriteReq.hits::cpu.data      1843345                       # number of WriteReq hits (Count)
system.cpu.dcache.WriteReq.hits::total        1843345                       # number of WriteReq hits (Count)
system.cpu.dcache.WriteReq.misses::cpu.data       605901                       # number of WriteReq misses (Count)
system.cpu.dcache.WriteReq.misses::total       605901                       # number of WriteReq misses (Count)
system.cpu.dcache.WriteReq.missLatency::cpu.data  49847596500                       # number of WriteReq miss ticks (Tick)
system.cpu.dcache.WriteReq.missLatency::total  49847596500                       # number of WriteReq miss ticks (Tick)
system.cpu.dcache.WriteReq.accesses::cpu.data      2449246                       # number of WriteReq accesses(hits+misses) (Count)
system.cpu.dcache.WriteReq.accesses::total      2449246                       # number of WriteReq accesses(hits+misses) (Count)
system.cpu.dcache.WriteReq.missRate::cpu.data     0.247383                       # miss rate for WriteReq accesses (Ratio)
system.cpu.dcache.WriteReq.missRate::total     0.247383                       # miss rate for WriteReq accesses (Ratio)
system.cpu.dcache.WriteReq.avgMissLatency::cpu.data 82270.200082                       # average WriteReq miss latency ((Tick/Count))
system.cpu.dcache.WriteReq.avgMissLatency::total 82270.200082                       # average WriteReq miss latency ((Tick/Count))
system.cpu.dcache.WriteReq.mshrHits::cpu.data       302918                       # number of WriteReq MSHR hits (Count)
system.cpu.dcache.WriteReq.mshrHits::total       302918                       # number of WriteReq MSHR hits (Count)
system.cpu.dcache.WriteReq.mshrMisses::cpu.data       302983                       # number of WriteReq MSHR misses (Count)
system.cpu.dcache.WriteReq.mshrMisses::total       302983                       # number of WriteReq MSHR misses (Count)
system.cpu.dcache.WriteReq.mshrMissLatency::cpu.data  24637093000                       # number of WriteReq MSHR miss ticks (Tick)
system.cpu.dcache.WriteReq.mshrMissLatency::total  24637093000                       # number of WriteReq MSHR miss ticks (Tick)
system.cpu.dcache.WriteReq.mshrMissRate::cpu.data     0.123705                       # mshr miss rate for WriteReq accesses (Ratio)
system.cpu.dcache.WriteReq.mshrMissRate::total     0.123705                       # mshr miss rate for WriteReq accesses (Ratio)
system.cpu.dcache.WriteReq.avgMshrMissLatency::cpu.data 81315.100187                       # average WriteReq mshr miss latency ((Tick/Count))
system.cpu.dcache.WriteReq.avgMshrMissLatency::total 81315.100187                       # average WriteReq mshr miss latency ((Tick/Count))
system.cpu.dcache.power_state.pwrStateResidencyTicks::UNDEFINED  26885053500                       # Cumulative time (in ticks) in various power states (Tick)
system.cpu.dcache.tags.tagsInUse          1014.596065                       # Average ticks per tags in use ((Tick/Count))
system.cpu.dcache.tags.totalRefs              2182828                       # Total number of references to valid blocks. (Count)
system.cpu.dcache.tags.sampledRefs             303306                       # Sample count of references to valid blocks. (Count)
system.cpu.dcache.tags.avgRefs               7.196785                       # Average number of references to valid blocks. ((Count/Count))
system.cpu.dcache.tags.warmupTick              176500                       # The tick when the warmup percentage was hit. (Tick)
system.cpu.dcache.tags.occupancies::cpu.data  1014.596065                       # Average occupied blocks per tick, per requestor ((Count/Tick))
system.cpu.dcache.tags.avgOccs::cpu.data     0.990816                       # Average percentage of cache occupancy ((Ratio/Tick))
system.cpu.dcache.tags.avgOccs::total        0.990816                       # Average percentage of cache occupancy ((Ratio/Tick))
system.cpu.dcache.tags.occupanciesTaskId::1024         1024                       # Occupied blocks per task id (Count)
system.cpu.dcache.tags.ageTaskId_1024::0          115                       # Occupied blocks per task id, per block age (Count)
system.cpu.dcache.tags.ageTaskId_1024::1          909                       # Occupied blocks per task id, per block age (Count)
system.cpu.dcache.tags.ratioOccsTaskId::1024            1                       # Ratio of occupied blocks and all blocks, per task id (Ratio)
system.cpu.dcache.tags.tagAccesses            5274826                       # Number of tag accesses (Count)
system.cpu.dcache.tags.dataAccesses           5274826                       # Number of data accesses (Count)
system.cpu.dcache.tags.power_state.pwrStateResidencyTicks::UNDEFINED  26885053500                       # Cumulative time (in ticks) in various power states (Tick)
system.cpu.fetch2.intInstructions             5261255                       # Number of integer instructions successfully decoded (Count)
system.cpu.fetch2.fpInstructions                    0                       # Number of floating point instructions successfully decoded (Count)
system.cpu.fetch2.vecInstructions                 210                       # Number of SIMD instructions successfully decoded (Count)
system.cpu.fetch2.loadInstructions              31008                       # Number of memory load instructions successfully decoded (Count)
system.cpu.fetch2.storeInstructions           2548155                       # Number of memory store instructions successfully decoded (Count)
system.cpu.fetch2.amoInstructions                   0                       # Number of memory atomic instructions successfully decoded (Count)
system.cpu.icache.demandHits::cpu.inst        5548861                       # number of demand (read+write) hits (Count)
system.cpu.icache.demandHits::total           5548861                       # number of demand (read+write) hits (Count)
system.cpu.icache.overallHits::cpu.inst       5548861                       # number of overall hits (Count)
system.cpu.icache.overallHits::total          5548861                       # number of overall hits (Count)
system.cpu.icache.demandMisses::cpu.inst         6416                       # number of demand (read+write) misses (Count)
system.cpu.icache.demandMisses::total            6416                       # number of demand (read+write) misses (Count)
system.cpu.icache.overallMisses::cpu.inst         6416                       # number of overall misses (Count)
system.cpu.icache.overallMisses::total           6416                       # number of overall misses (Count)
system.cpu.icache.demandMissLatency::cpu.inst    145428500                       # number of demand (read+write) miss ticks (Tick)
system.cpu.icache.demandMissLatency::total    145428500                       # number of demand (read+write) miss ticks (Tick)
system.cpu.icache.overallMissLatency::cpu.inst    145428500                       # number of overall miss ticks (Tick)
system.cpu.icache.overallMissLatency::total    145428500                       # number of overall miss ticks (Tick)
system.cpu.icache.demandAccesses::cpu.inst      5555277                       # number of demand (read+write) accesses (Count)
system.cpu.icache.demandAccesses::total       5555277                       # number of demand (read+write) accesses (Count)
system.cpu.icache.overallAccesses::cpu.inst      5555277                       # number of overall (read+write) accesses (Count)
system.cpu.icache.overallAccesses::total      5555277                       # number of overall (read+write) accesses (Count)
system.cpu.icache.demandMissRate::cpu.inst     0.001155                       # miss rate for demand accesses (Ratio)
system.cpu.icache.demandMissRate::total      0.001155                       # miss rate for demand accesses (Ratio)
system.cpu.icache.overallMissRate::cpu.inst     0.001155                       # miss rate for overall accesses (Ratio)
system.cpu.icache.overallMissRate::total     0.001155                       # miss rate for overall accesses (Ratio)
system.cpu.icache.demandAvgMissLatency::cpu.inst 22666.536783                       # average overall miss latency in ticks ((Tick/Count))
system.cpu.icache.demandAvgMissLatency::total 22666.536783                       # average overall miss latency in ticks ((Tick/Count))
system.cpu.icache.overallAvgMissLatency::cpu.inst 22666.536783                       # average overall miss latency ((Tick/Count))
system.cpu.icache.overallAvgMissLatency::total 22666.536783                       # average overall miss latency ((Tick/Count))
system.cpu.icache.blockedCycles::no_mshrs            0                       # number of cycles access was blocked (Cycle)
system.cpu.icache.blockedCycles::no_targets            0                       # number of cycles access was blocked (Cycle)
system.cpu.icache.blockedCauses::no_mshrs            0                       # number of times access was blocked (Count)
system.cpu.icache.blockedCauses::no_targets            0                       # number of times access was blocked (Count)
system.cpu.icache.avgBlocked::no_mshrs            nan                       # average number of cycles each access was blocked ((Cycle/Count))
system.cpu.icache.avgBlocked::no_targets          nan                       # average number of cycles each access was blocked ((Cycle/Count))
system.cpu.icache.writebacks::writebacks         6160                       # number of writebacks (Count)
system.cpu.icache.writebacks::total              6160                       # number of writebacks (Count)
system.cpu.icache.demandMshrMisses::cpu.inst         6416                       # number of demand (read+write) MSHR misses (Count)
system.cpu.icache.demandMshrMisses::total         6416                       # number of demand (read+write) MSHR misses (Count)
system.cpu.icache.overallMshrMisses::cpu.inst         6416                       # number of overall MSHR misses (Count)
system.cpu.icache.overallMshrMisses::total         6416                       # number of overall MSHR misses (Count)
system.cpu.icache.demandMshrMissLatency::cpu.inst    139012500                       # number of demand (read+write) MSHR miss ticks (Tick)
system.cpu.icache.demandMshrMissLatency::total    139012500                       # number of demand (read+write) MSHR miss ticks (Tick)
system.cpu.icache.overallMshrMissLatency::cpu.inst    139012500                       # number of overall MSHR miss ticks (Tick)
system.cpu.icache.overallMshrMissLatency::total    139012500                       # number of overall MSHR miss ticks (Tick)
system.cpu.icache.demandMshrMissRate::cpu.inst     0.001155                       # mshr miss ratio for demand accesses (Ratio)
system.cpu.icache.demandMshrMissRate::total     0.001155                       # mshr miss ratio for demand accesses (Ratio)
system.cpu.icache.overallMshrMissRate::cpu.inst     0.001155                       # mshr miss ratio for overall accesses (Ratio)
system.cpu.icache.overallMshrMissRate::total     0.001155                       # mshr miss ratio for overall accesses (Ratio)
system.cpu.icache.demandAvgMshrMissLatency::cpu.inst 21666.536783                       # average overall mshr miss latency ((Tick/Count))
system.cpu.icache.demandAvgMshrMissLatency::total 21666.536783                       # average overall mshr miss latency ((Tick/Count))
system.cpu.icache.overallAvgMshrMissLatency::cpu.inst 21666.536783                       # average overall mshr miss latency ((Tick/Count))
system.cpu.icache.overallAvgMshrMissLatency::total 21666.536783                       # average overall mshr miss latency ((Tick/Count))
system.cpu.icache.replacements                   6160                       # number of replacements (Count)
system.cpu.icache.ReadReq.hits::cpu.inst      5548861                       # number of ReadReq hits (Count)
system.cpu.icache.ReadReq.hits::total         5548861                       # number of ReadReq hits (Count)
system.cpu.icache.ReadReq.misses::cpu.inst         6416                       # number of ReadReq misses (Count)
system.cpu.icache.ReadReq.misses::total          6416                       # number of ReadReq misses (Count)
system.cpu.icache.ReadReq.missLatency::cpu.inst    145428500                       # number of ReadReq miss ticks (Tick)
system.cpu.icache.ReadReq.missLatency::total    145428500                       # number of ReadReq miss ticks (Tick)
system.cpu.icache.ReadReq.accesses::cpu.inst      5555277                       # number of ReadReq accesses(hits+misses) (Count)
system.cpu.icache.ReadReq.accesses::total      5555277                       # number of ReadReq accesses(hits+misses) (Count)
system.cpu.icache.ReadReq.missRate::cpu.inst     0.001155                       # miss rate for ReadReq accesses (Ratio)
system.cpu.icache.ReadReq.missRate::total     0.001155                       # miss rate for ReadReq accesses (Ratio)
system.cpu.icache.ReadReq.avgMissLatency::cpu.inst 22666.536783                       # average ReadReq miss latency ((Tick/Count))
system.cpu.icache.ReadReq.avgMissLatency::total 22666.536783                       # average ReadReq miss latency ((Tick/Count))
system.cpu.icache.ReadReq.mshrMisses::cpu.inst         6416                       # number of ReadReq MSHR misses (Count)
system.cpu.icache.ReadReq.mshrMisses::total         6416                       # number of ReadReq MSHR misses (Count)
system.cpu.icache.ReadReq.mshrMissLatency::cpu.inst    139012500                       # number of ReadReq MSHR miss ticks (Tick)
system.cpu.icache.ReadReq.mshrMissLatency::total    139012500                       # number of ReadReq MSHR miss ticks (Tick)
system.cpu.icache.ReadReq.mshrMissRate::cpu.inst     0.001155                       # mshr miss rate for ReadReq accesses (Ratio)
system.cpu.icache.ReadReq.mshrMissRate::total     0.001155                       # mshr miss rate for ReadReq accesses (Ratio)
system.cpu.icache.ReadReq.avgMshrMissLatency::cpu.inst 21666.536783                       # average ReadReq mshr miss latency ((Tick/Count))
system.cpu.icache.ReadReq.avgMshrMissLatency::total 21666.536783                       # average ReadReq mshr miss latency ((Tick/Count))
system.cpu.icache.power_state.pwrStateResidencyTicks::UNDEFINED  26885053500                       # Cumulative time (in ticks) in various power states (Tick)
system.cpu.icache.tags.tagsInUse           255.835630                       # Average ticks per tags in use ((Tick/Count))
system.cpu.icache.tags.totalRefs              5555277                       # Total number of references to valid blocks. (Count)
system.cpu.icache.tags.sampledRefs               6416                       # Sample count of references to valid blocks. (Count)
system.cpu.icache.tags.avgRefs             865.847413                       # Average number of references to valid blocks. ((Count/Count))
system.cpu.icache.tags.warmupTick               87500                       # The tick when the warmup percentage was hit. (Tick)
system.cpu.icache.tags.occupancies::cpu.inst   255.835630                       # Average occupied blocks per tick, per requestor ((Count/Tick))
system.cpu.icache.tags.avgOccs::cpu.inst     0.999358                       # Average percentage of cache occupancy ((Ratio/Tick))
system.cpu.icache.tags.avgOccs::total        0.999358                       # Average percentage of cache occupancy ((Ratio/Tick))
system.cpu.icache.tags.occupanciesTaskId::1024          256                       # Occupied blocks per task id (Count)
system.cpu.icache.tags.ageTaskId_1024::4          256                       # Occupied blocks per task id, per block age (Count)
system.cpu.icache.tags.ratioOccsTaskId::1024            1                       # Ratio of occupied blocks and all blocks, per task id (Ratio)
system.cpu.icache.tags.tagAccesses           11116970                       # Number of tag accesses (Count)
system.cpu.icache.tags.dataAccesses          11116970                       # Number of data accesses (Count)
system.cpu.icache.tags.power_state.pwrStateResidencyTicks::UNDEFINED  26885053500                       # Cumulative time (in ticks) in various power states (Tick)
system.cpu.mmu.alignFaults                          0                       # Number of MMU faults due to alignment restrictions (Count)
system.cpu.mmu.prefetchFaults                       0                       # Number of MMU faults due to prefetch (Count)
system.cpu.mmu.domainFaults                         0                       # Number of MMU faults due to domain restrictions (Count)
system.cpu.mmu.permsFaults                          0                       # Number of MMU faults due to permissions restrictions (Count)
system.cpu.mmu.dtb.readHits                         0                       # Read hits (Count)
system.cpu.mmu.dtb.readMisses                       0                       # Read misses (Count)
system.cpu.mmu.dtb.writeHits                        0                       # Write hits (Count)
system.cpu.mmu.dtb.writeMisses                      0                       # Write misses (Count)
system.cpu.mmu.dtb.inserts                          0                       # Number of times an entry is inserted into the TLB (Count)
system.cpu.mmu.dtb.flushTlb                         0                       # Number of times complete TLB was flushed (Count)
system.cpu.mmu.dtb.flushTlbMva                      0                       # Number of times TLB was flushed by MVA (Count)
system.cpu.mmu.dtb.flushTlbMvaAsid                  0                       # Number of times TLB was flushed by MVA & ASID (Count)
system.cpu.mmu.dtb.flushTlbAsid                     0                       # Number of times TLB was flushed by ASID (Count)
system.cpu.mmu.dtb.flushedEntries                   0                       # Number of entries that have been flushed from TLB (Count)
system.cpu.mmu.dtb.readAccesses                     0                       # Read accesses (Count)
system.cpu.mmu.dtb.writeAccesses                    0                       # Write accesses (Count)
system.cpu.mmu.dtb.hits                             0                       # Total TLB (inst and data) hits (Count)
system.cpu.mmu.dtb.misses                           0                       # Total TLB (inst and data) misses (Count)
system.cpu.mmu.dtb.accesses                         0                       # Total TLB (inst and data) accesses (Count)
system.cpu.mmu.dtb_walker.walks                     0                       # Table walker walks requested (Count)
system.cpu.mmu.dtb_walker.requestOrigin_Requested::Data            0                       # Table walker requests started/completed, data/inst (Count)
system.cpu.mmu.dtb_walker.requestOrigin_Requested::Inst            0                       # Table walker requests started/completed, data/inst (Count)
system.cpu.mmu.dtb_walker.requestOrigin_Requested::total            0                       # Table walker requests started/completed, data/inst (Count)
system.cpu.mmu.dtb_walker.requestOrigin_Completed::Data            0                       # Table walker requests started/completed, data/inst (Count)
system.cpu.mmu.dtb_walker.requestOrigin_Completed::Inst            0                       # Table walker requests started/completed, data/inst (Count)
system.cpu.mmu.dtb_walker.requestOrigin_Completed::total            0                       # Table walker requests started/completed, data/inst (Count)
system.cpu.mmu.dtb_walker.requestOrigin::total            0                       # Table walker requests started/completed, data/inst (Count)
system.cpu.mmu.dtb_walker.power_state.pwrStateResidencyTicks::UNDEFINED  26885053500                       # Cumulative time (in ticks) in various power states (Tick)
system.cpu.mmu.itb.instHits                         0                       # Inst hits (Count)
system.cpu.mmu.itb.instMisses                       0                       # Inst misses (Count)
system.cpu.mmu.itb.inserts                          0                       # Number of times an entry is inserted into the TLB (Count)
system.cpu.mmu.itb.flushTlb                         0                       # Number of times complete TLB was flushed (Count)
system.cpu.mmu.itb.flushTlbMva                      0                       # Number of times TLB was flushed by MVA (Count)
system.cpu.mmu.itb.flushTlbMvaAsid                  0                       # Number of times TLB was flushed by MVA & ASID (Count)
system.cpu.mmu.itb.flushTlbAsid                     0                       # Number of times TLB was flushed by ASID (Count)
system.cpu.mmu.itb.flushedEntries                   0                       # Number of entries that have been flushed from TLB (Count)
system.cpu.mmu.itb.instAccesses                     0                       # Inst accesses (Count)
system.cpu.mmu.itb.hits                             0                       # Total TLB (inst and data) hits (Count)
system.cpu.mmu.itb.misses                           0                       # Total TLB (inst and data) misses (Count)
system.cpu.mmu.itb.accesses                         0                       # Total TLB (inst and data) accesses (Count)
system.cpu.mmu.itb_walker.walks                     0                       # Table walker walks requested (Count)
system.cpu.mmu.itb_walker.requestOrigin_Requested::Data            0                       # Table walker requests started/completed, data/inst (Count)
system.cpu.mmu.itb_walker.requestOrigin_Requested::Inst            0                       # Table walker requests started/completed, data/inst (Count)
system.cpu.mmu.itb_walker.requestOrigin_Requested::total            0                       # Table walker requests started/completed, data/inst (Count)
system.cpu.mmu.itb_walker.requestOrigin_Completed::Data            0                       # Table walker requests started/completed, data/inst (Count)
system.cpu.mmu.itb_walker.requestOrigin_Completed::Inst            0                       # Table walker requests started/completed, data/inst (Count)
system.cpu.mmu.itb_walker.requestOrigin_Completed::total            0                       # Table walker requests started/completed, data/inst (Count)
system.cpu.mmu.itb_walker.requestOrigin::total            0                       # Table walker requests started/completed, data/inst (Count)
system.cpu.mmu.itb_walker.power_state.pwrStateResidencyTicks::UNDEFINED  26885053500                       # Cumulative time (in ticks) in various power states (Tick)
system.cpu.mmu.l2_shared.instHits                   0                       # Inst hits (Count)
system.cpu.mmu.l2_shared.instMisses                 0                       # Inst misses (Count)
system.cpu.mmu.l2_shared.inserts                    0                       # Number of times an entry is inserted into the TLB (Count)
system.cpu.mmu.l2_shared.flushTlb                   0                       # Number of times complete TLB was flushed (Count)
system.cpu.mmu.l2_shared.flushTlbMva                0                       # Number of times TLB was flushed by MVA (Count)
system.cpu.mmu.l2_shared.flushTlbMvaAsid            0                       # Number of times TLB was flushed by MVA & ASID (Count)
system.cpu.mmu.l2_shared.flushTlbAsid               0                       # Number of times TLB was flushed by ASID (Count)
system.cpu.mmu.l2_shared.flushedEntries             0                       # Number of entries that have been flushed from TLB (Count)
system.cpu.mmu.l2_shared.instAccesses               0                       # Inst accesses (Count)
system.cpu.mmu.l2_shared.hits                       0                       # Total TLB (inst and data) hits (Count)
system.cpu.mmu.l2_shared.misses                     0                       # Total TLB (inst and data) misses (Count)
system.cpu.mmu.l2_shared.accesses                   0                       # Total TLB (inst and data) accesses (Count)
system.cpu.mmu.stage2_dtb.readHits                  0                       # Read hits (Count)
system.cpu.mmu.stage2_dtb.readMisses                0                       # Read misses (Count)
system.cpu.mmu.stage2_dtb.writeHits                 0                       # Write hits (Count)
system.cpu.mmu.stage2_dtb.writeMisses               0                       # Write misses (Count)
system.cpu.mmu.stage2_dtb.inserts                   0                       # Number of times an entry is inserted into the TLB (Count)
system.cpu.mmu.stage2_dtb.flushTlb                  0                       # Number of times complete TLB was flushed (Count)
system.cpu.mmu.stage2_dtb.flushTlbMva               0                       # Number of times TLB was flushed by MVA (Count)
system.cpu.mmu.stage2_dtb.flushTlbMvaAsid            0                       # Number of times TLB was flushed by MVA & ASID (Count)
system.cpu.mmu.stage2_dtb.flushTlbAsid              0                       # Number of times TLB was flushed by ASID (Count)
system.cpu.mmu.stage2_dtb.flushedEntries            0                       # Number of entries that have been flushed from TLB (Count)
system.cpu.mmu.stage2_dtb.readAccesses              0                       # Read accesses (Count)
system.cpu.mmu.stage2_dtb.writeAccesses             0                       # Write accesses (Count)
system.cpu.mmu.stage2_dtb.hits                      0                       # Total TLB (inst and data) hits (Count)
system.cpu.mmu.stage2_dtb.misses                    0                       # Total TLB (inst and data) misses (Count)
system.cpu.mmu.stage2_dtb.accesses                  0                       # Total TLB (inst and data) accesses (Count)
system.cpu.mmu.stage2_dtb_walker.walks              0                       # Table walker walks requested (Count)
system.cpu.mmu.stage2_dtb_walker.requestOrigin_Requested::Data            0                       # Table walker requests started/completed, data/inst (Count)
system.cpu.mmu.stage2_dtb_walker.requestOrigin_Requested::Inst            0                       # Table walker requests started/completed, data/inst (Count)
system.cpu.mmu.stage2_dtb_walker.requestOrigin_Requested::total            0                       # Table walker requests started/completed, data/inst (Count)
system.cpu.mmu.stage2_dtb_walker.requestOrigin_Completed::Data            0                       # Table walker requests started/completed, data/inst (Count)
system.cpu.mmu.stage2_dtb_walker.requestOrigin_Completed::Inst            0                       # Table walker requests started/completed, data/inst (Count)
system.cpu.mmu.stage2_dtb_walker.requestOrigin_Completed::total            0                       # Table walker requests started/completed, data/inst (Count)
system.cpu.mmu.stage2_dtb_walker.requestOrigin::total            0                       # Table walker requests started/completed, data/inst (Count)
system.cpu.mmu.stage2_dtb_walker.power_state.pwrStateResidencyTicks::UNDEFINED  26885053500                       # Cumulative time (in ticks) in various power states (Tick)
system.cpu.mmu.stage2_itb.instHits                  0                       # Inst hits (Count)
system.cpu.mmu.stage2_itb.instMisses                0                       # Inst misses (Count)
system.cpu.mmu.stage2_itb.inserts                   0                       # Number of times an entry is inserted into the TLB (Count)
system.cpu.mmu.stage2_itb.flushTlb                  0                       # Number of times complete TLB was flushed (Count)
system.cpu.mmu.stage2_itb.flushTlbMva               0                       # Number of times TLB was flushed by MVA (Count)
system.cpu.mmu.stage2_itb.flushTlbMvaAsid            0                       # Number of times TLB was flushed by MVA & ASID (Count)
system.cpu.mmu.stage2_itb.flushTlbAsid              0                       # Number of times TLB was flushed by ASID (Count)
system.cpu.mmu.stage2_itb.flushedEntries            0                       # Number of entries that have been flushed from TLB (Count)
system.cpu.mmu.stage2_itb.instAccesses              0                       # Inst accesses (Count)
system.cpu.mmu.stage2_itb.hits                      0                       # Total TLB (inst and data) hits (Count)
system.cpu.mmu.stage2_itb.misses                    0                       # Total TLB (inst and data) misses (Count)
system.cpu.mmu.stage2_itb.accesses                  0                       # Total TLB (inst and data) accesses (Count)
system.cpu.mmu.stage2_itb_walker.walks              0                       # Table walker walks requested (Count)
system.cpu.mmu.stage2_itb_walker.requestOrigin_Requested::Data            0                       # Table walker requests started/completed, data/inst (Count)
system.cpu.mmu.stage2_itb_walker.requestOrigin_Requested::Inst            0                       # Table walker requests started/completed, data/inst (Count)
system.cpu.mmu.stage2_itb_walker.requestOrigin_Requested::total            0                       # Table walker requests started/completed, data/inst (Count)
system.cpu.mmu.stage2_itb_walker.requestOrigin_Completed::Data            0                       # Table walker requests started/completed, data/inst (Count)
system.cpu.mmu.stage2_itb_walker.requestOrigin_Completed::Inst            0                       # Table walker requests started/completed, data/inst (Count)
system.cpu.mmu.stage2_itb_walker.requestOrigin_Completed::total            0                       # Table walker requests started/completed, data/inst (Count)
system.cpu.mmu.stage2_itb_walker.requestOrigin::total            0                       # Table walker requests started/completed, data/inst (Count)
system.cpu.mmu.stage2_itb_walker.power_state.pwrStateResidencyTicks::UNDEFINED  26885053500                       # Cumulative time (in ticks) in various power states (Tick)
system.cpu.power_state.pwrStateResidencyTicks::ON  26885053500                       # Cumulative time (in ticks) in various power states (Tick)
system.cpu.thread_0.numInsts                 10000000                       # Number of Instructions committed (Count)
system.cpu.thread_0.numOps                   10027184                       # Number of Ops committed (Count)
system.cpu.thread_0.numMemRefs                      0                       # Number of Memory References (Count)
system.cpu.workload.numSyscalls                    35                       # Number of system calls (Count)
system.cpu_clk_domain.clock                       500                       # Clock period in ticks (Tick)
system.cpu_voltage_domain.voltage                   1                       # Voltage in Volts (Volt)
system.l2.demandHits::cpu.inst                   5483                       # number of demand (read+write) hits (Count)
system.l2.demandHits::cpu.data                    114                       # number of demand (read+write) hits (Count)
system.l2.demandHits::total                      5597                       # number of demand (read+write) hits (Count)
system.l2.overallHits::cpu.inst                  5483                       # number of overall hits (Count)
system.l2.overallHits::cpu.data                   114                       # number of overall hits (Count)
system.l2.overallHits::total                     5597                       # number of overall hits (Count)
system.l2.demandMisses::cpu.inst                  933                       # number of demand (read+write) misses (Count)
system.l2.demandMisses::cpu.data               303134                       # number of demand (read+write) misses (Count)
system.l2.demandMisses::total                  304067                       # number of demand (read+write) misses (Count)
system.l2.overallMisses::cpu.inst                 933                       # number of overall misses (Count)
system.l2.overallMisses::cpu.data              303134                       # number of overall misses (Count)
system.l2.overallMisses::total                 304067                       # number of overall misses (Count)
system.l2.demandMissLatency::cpu.inst        71778000                       # number of demand (read+write) miss ticks (Tick)
system.l2.demandMissLatency::cpu.data     24194421000                       # number of demand (read+write) miss ticks (Tick)
system.l2.demandMissLatency::total        24266199000                       # number of demand (read+write) miss ticks (Tick)
system.l2.overallMissLatency::cpu.inst       71778000                       # number of overall miss ticks (Tick)
system.l2.overallMissLatency::cpu.data    24194421000                       # number of overall miss ticks (Tick)
system.l2.overallMissLatency::total       24266199000                       # number of overall miss ticks (Tick)
system.l2.demandAccesses::cpu.inst               6416                       # number of demand (read+write) accesses (Count)
system.l2.demandAccesses::cpu.data             303248                       # number of demand (read+write) accesses (Count)
system.l2.demandAccesses::total                309664                       # number of demand (read+write) accesses (Count)
system.l2.overallAccesses::cpu.inst              6416                       # number of overall (read+write) accesses (Count)
system.l2.overallAccesses::cpu.data            303248                       # number of overall (read+write) accesses (Count)
system.l2.overallAccesses::total               309664                       # number of overall (read+write) accesses (Count)
system.l2.demandMissRate::cpu.inst           0.145418                       # miss rate for demand accesses (Ratio)
system.l2.demandMissRate::cpu.data           0.999624                       # miss rate for demand accesses (Ratio)
system.l2.demandMissRate::total              0.981926                       # miss rate for demand accesses (Ratio)
system.l2.overallMissRate::cpu.inst          0.145418                       # miss rate for overall accesses (Ratio)
system.l2.overallMissRate::cpu.data          0.999624                       # miss rate for overall accesses (Ratio)
system.l2.overallMissRate::total             0.981926                       # miss rate for overall accesses (Ratio)
system.l2.demandAvgMissLatency::cpu.inst 76932.475884                       # average overall miss latency in ticks ((Tick/Count))
system.l2.demandAvgMissLatency::cpu.data 79814.276854                       # average overall miss latency in ticks ((Tick/Count))
system.l2.demandAvgMissLatency::total    79805.434329                       # average overall miss latency in ticks ((Tick/Count))
system.l2.overallAvgMissLatency::cpu.inst 76932.475884                       # average overall miss latency ((Tick/Count))
system.l2.overallAvgMissLatency::cpu.data 79814.276854                       # average overall miss latency ((Tick/Count))
system.l2.overallAvgMissLatency::total   79805.434329                       # average overall miss latency ((Tick/Count))
system.l2.blockedCycles::no_mshrs                   0                       # number of cycles access was blocked (Cycle)
system.l2.blockedCycles::no_targets                 0                       # number of cycles access was blocked (Cycle)
system.l2.blockedCauses::no_mshrs                   0                       # number of times access was blocked (Count)
system.l2.blockedCauses::no_targets                 0                       # number of times access was blocked (Count)
system.l2.avgBlocked::no_mshrs                    nan                       # average number of cycles each access was blocked ((Cycle/Count))
system.l2.avgBlocked::no_targets                  nan                       # average number of cycles each access was blocked ((Cycle/Count))
system.l2.writebacks::writebacks               270302                       # number of writebacks (Count)
system.l2.writebacks::total                    270302                       # number of writebacks (Count)
system.l2.demandMshrMisses::cpu.inst              933                       # number of demand (read+write) MSHR misses (Count)
system.l2.demandMshrMisses::cpu.data           303134                       # number of demand (read+write) MSHR misses (Count)
system.l2.demandMshrMisses::total              304067                       # number of demand (read+write) MSHR misses (Count)
system.l2.overallMshrMisses::cpu.inst             933                       # number of overall MSHR misses (Count)
system.l2.overallMshrMisses::cpu.data          303134                       # number of overall MSHR misses (Count)
system.l2.overallMshrMisses::total             304067                       # number of overall MSHR misses (Count)
system.l2.demandMshrMissLatency::cpu.inst     62448000                       # number of demand (read+write) MSHR miss ticks (Tick)
system.l2.demandMshrMissLatency::cpu.data  21163081000                       # number of demand (read+write) MSHR miss ticks (Tick)
system.l2.demandMshrMissLatency::total    21225529000                       # number of demand (read+write) MSHR miss ticks (Tick)
system.l2.overallMshrMissLatency::cpu.inst     62448000                       # number of overall MSHR miss ticks (Tick)
system.l2.overallMshrMissLatency::cpu.data  21163081000                       # number of overall MSHR miss ticks (Tick)
system.l2.overallMshrMissLatency::total   21225529000                       # number of overall MSHR miss ticks (Tick)
system.l2.demandMshrMissRate::cpu.inst       0.145418                       # mshr miss ratio for demand accesses (Ratio)
system.l2.demandMshrMissRate::cpu.data       0.999624                       # mshr miss ratio for demand accesses (Ratio)
system.l2.demandMshrMissRate::total          0.981926                       # mshr miss ratio for demand accesses (Ratio)
system.l2.overallMshrMissRate::cpu.inst      0.145418                       # mshr miss ratio for overall accesses (Ratio)
system.l2.overallMshrMissRate::cpu.data      0.999624                       # mshr miss ratio for overall accesses (Ratio)
system.l2.overallMshrMissRate::total         0.981926                       # mshr miss ratio for overall accesses (Ratio)
system.l2.demandAvgMshrMissLatency::cpu.inst 66932.475884                       # average overall mshr miss latency ((Tick/Count))
system.l2.demandAvgMshrMissLatency::cpu.data 69814.276854                       # average overall mshr miss latency ((Tick/Count))
system.l2.demandAvgMshrMissLatency::total 69805.434329                       # average overall mshr miss latency ((Tick/Count))
system.l2.overallAvgMshrMissLatency::cpu.inst 66932.475884                       # average overall mshr miss latency ((Tick/Count))
system.l2.overallAvgMshrMissLatency::cpu.data 69814.276854                       # average overall mshr miss latency ((Tick/Count))
system.l2.overallAvgMshrMissLatency::total 69805.434329                       # average overall mshr miss latency ((Tick/Count))
system.l2.replacements                         271357                       # number of replacements (Count)
system.l2.InvalidateReq.misses::cpu.data           58                       # number of InvalidateReq misses (Count)
system.l2.InvalidateReq.misses::total              58                       # number of InvalidateReq misses (Count)
system.l2.InvalidateReq.accesses::cpu.data           58                       # number of InvalidateReq accesses(hits+misses) (Count)
system.l2.InvalidateReq.accesses::total            58                       # number of InvalidateReq accesses(hits+misses) (Count)
system.l2.InvalidateReq.missRate::cpu.data            1                       # miss rate for InvalidateReq accesses (Ratio)
system.l2.InvalidateReq.missRate::total             1                       # miss rate for InvalidateReq accesses (Ratio)
system.l2.InvalidateReq.mshrMisses::cpu.data           58                       # number of InvalidateReq MSHR misses (Count)
system.l2.InvalidateReq.mshrMisses::total           58                       # number of InvalidateReq MSHR misses (Count)
system.l2.InvalidateReq.mshrMissLatency::cpu.data      1098000                       # number of InvalidateReq MSHR miss ticks (Tick)
system.l2.InvalidateReq.mshrMissLatency::total      1098000                       # number of InvalidateReq MSHR miss ticks (Tick)
system.l2.InvalidateReq.mshrMissRate::cpu.data            1                       # mshr miss rate for InvalidateReq accesses (Ratio)
system.l2.InvalidateReq.mshrMissRate::total            1                       # mshr miss rate for InvalidateReq accesses (Ratio)
system.l2.InvalidateReq.avgMshrMissLatency::cpu.data 18931.034483                       # average InvalidateReq mshr miss latency ((Tick/Count))
system.l2.InvalidateReq.avgMshrMissLatency::total 18931.034483                       # average InvalidateReq mshr miss latency ((Tick/Count))
system.l2.ReadCleanReq.hits::cpu.inst            5483                       # number of ReadCleanReq hits (Count)
system.l2.ReadCleanReq.hits::total               5483                       # number of ReadCleanReq hits (Count)
system.l2.ReadCleanReq.misses::cpu.inst           933                       # number of ReadCleanReq misses (Count)
system.l2.ReadCleanReq.misses::total              933                       # number of ReadCleanReq misses (Count)
system.l2.ReadCleanReq.missLatency::cpu.inst     71778000                       # number of ReadCleanReq miss ticks (Tick)
system.l2.ReadCleanReq.missLatency::total     71778000                       # number of ReadCleanReq miss ticks (Tick)
system.l2.ReadCleanReq.accesses::cpu.inst         6416                       # number of ReadCleanReq accesses(hits+misses) (Count)
system.l2.ReadCleanReq.accesses::total           6416                       # number of ReadCleanReq accesses(hits+misses) (Count)
system.l2.ReadCleanReq.missRate::cpu.inst     0.145418                       # miss rate for ReadCleanReq accesses (Ratio)
system.l2.ReadCleanReq.missRate::total       0.145418                       # miss rate for ReadCleanReq accesses (Ratio)
system.l2.ReadCleanReq.avgMissLatency::cpu.inst 76932.475884                       # average ReadCleanReq miss latency ((Tick/Count))
system.l2.ReadCleanReq.avgMissLatency::total 76932.475884                       # average ReadCleanReq miss latency ((Tick/Count))
system.l2.ReadCleanReq.mshrMisses::cpu.inst          933                       # number of ReadCleanReq MSHR misses (Count)
system.l2.ReadCleanReq.mshrMisses::total          933                       # number of ReadCleanReq MSHR misses (Count)
system.l2.ReadCleanReq.mshrMissLatency::cpu.inst     62448000                       # number of ReadCleanReq MSHR miss ticks (Tick)
system.l2.ReadCleanReq.mshrMissLatency::total     62448000                       # number of ReadCleanReq MSHR miss ticks (Tick)
system.l2.ReadCleanReq.mshrMissRate::cpu.inst     0.145418                       # mshr miss rate for ReadCleanReq accesses (Ratio)
system.l2.ReadCleanReq.mshrMissRate::total     0.145418                       # mshr miss rate for ReadCleanReq accesses (Ratio)
system.l2.ReadCleanReq.avgMshrMissLatency::cpu.inst 66932.475884                       # average ReadCleanReq mshr miss latency ((Tick/Count))
system.l2.ReadCleanReq.avgMshrMissLatency::total 66932.475884                       # average ReadCleanReq mshr miss latency ((Tick/Count))
system.l2.ReadExReq.hits::cpu.data                  1                       # number of ReadExReq hits (Count)
system.l2.ReadExReq.hits::total                     1                       # number of ReadExReq hits (Count)
system.l2.ReadExReq.misses::cpu.data           302982                       # number of ReadExReq misses (Count)
system.l2.ReadExReq.misses::total              302982                       # number of ReadExReq misses (Count)
system.l2.ReadExReq.missLatency::cpu.data  24182607000                       # number of ReadExReq miss ticks (Tick)
system.l2.ReadExReq.missLatency::total    24182607000                       # number of ReadExReq miss ticks (Tick)
system.l2.ReadExReq.accesses::cpu.data         302983                       # number of ReadExReq accesses(hits+misses) (Count)
system.l2.ReadExReq.accesses::total            302983                       # number of ReadExReq accesses(hits+misses) (Count)
system.l2.ReadExReq.missRate::cpu.data       0.999997                       # miss rate for ReadExReq accesses (Ratio)
system.l2.ReadExReq.missRate::total          0.999997                       # miss rate for ReadExReq accesses (Ratio)
system.l2.ReadExReq.avgMissLatency::cpu.data 79815.325663                       # average ReadExReq miss latency ((Tick/Count))
system.l2.ReadExReq.avgMissLatency::total 79815.325663                       # average ReadExReq miss latency ((Tick/Count))
system.l2.ReadExReq.mshrMisses::cpu.data       302982                       # number of ReadExReq MSHR misses (Count)
system.l2.ReadExReq.mshrMisses::total          302982                       # number of ReadExReq MSHR misses (Count)
system.l2.ReadExReq.mshrMissLatency::cpu.data  21152787000                       # number of ReadExReq MSHR miss ticks (Tick)
system.l2.ReadExReq.mshrMissLatency::total  21152787000                       # number of ReadExReq MSHR miss ticks (Tick)
system.l2.ReadExReq.mshrMissRate::cpu.data     0.999997                       # mshr miss rate for ReadExReq accesses (Ratio)
system.l2.ReadExReq.mshrMissRate::total      0.999997                       # mshr miss rate for ReadExReq accesses (Ratio)
system.l2.ReadExReq.avgMshrMissLatency::cpu.data 69815.325663                       # average ReadExReq mshr miss latency ((Tick/Count))
system.l2.ReadExReq.avgMshrMissLatency::total 69815.325663                       # average ReadExReq mshr miss latency ((Tick/Count))
system.l2.ReadSharedReq.hits::cpu.data            113                       # number of ReadSharedReq hits (Count)
system.l2.ReadSharedReq.hits::total               113                       # number of ReadSharedReq hits (Count)
system.l2.ReadSharedReq.misses::cpu.data          152                       # number of ReadSharedReq misses (Count)
system.l2.ReadSharedReq.misses::total             152                       # number of ReadSharedReq misses (Count)
system.l2.ReadSharedReq.missLatency::cpu.data     11814000                       # number of ReadSharedReq miss ticks (Tick)
system.l2.ReadSharedReq.missLatency::total     11814000                       # number of ReadSharedReq miss ticks (Tick)
system.l2.ReadSharedReq.accesses::cpu.data          265                       # number of ReadSharedReq accesses(hits+misses) (Count)
system.l2.ReadSharedReq.accesses::total           265                       # number of ReadSharedReq accesses(hits+misses) (Count)
system.l2.ReadSharedReq.missRate::cpu.data     0.573585                       # miss rate for ReadSharedReq accesses (Ratio)
system.l2.ReadSharedReq.missRate::total      0.573585                       # miss rate for ReadSharedReq accesses (Ratio)
system.l2.ReadSharedReq.avgMissLatency::cpu.data 77723.684211                       # average ReadSharedReq miss latency ((Tick/Count))
system.l2.ReadSharedReq.avgMissLatency::total 77723.684211                       # average ReadSharedReq miss latency ((Tick/Count))
system.l2.ReadSharedReq.mshrMisses::cpu.data          152                       # number of ReadSharedReq MSHR misses (Count)
system.l2.ReadSharedReq.mshrMisses::total          152                       # number of ReadSharedReq MSHR misses (Count)
system.l2.ReadSharedReq.mshrMissLatency::cpu.data     10294000                       # number of ReadSharedReq MSHR miss ticks (Tick)
system.l2.ReadSharedReq.mshrMissLatency::total     10294000                       # number of ReadSharedReq MSHR miss ticks (Tick)
system.l2.ReadSharedReq.mshrMissRate::cpu.data     0.573585                       # mshr miss rate for ReadSharedReq accesses (Ratio)
system.l2.ReadSharedReq.mshrMissRate::total     0.573585                       # mshr miss rate for ReadSharedReq accesses (Ratio)
system.l2.ReadSharedReq.avgMshrMissLatency::cpu.data 67723.684211                       # average ReadSharedReq mshr miss latency ((Tick/Count))
system.l2.ReadSharedReq.avgMshrMissLatency::total 67723.684211                       # average ReadSharedReq mshr miss latency ((Tick/Count))
system.l2.WritebackClean.hits::writebacks         6149                       # number of WritebackClean hits (Count)
system.l2.WritebackClean.hits::total             6149                       # number of WritebackClean hits (Count)
system.l2.WritebackClean.accesses::writebacks         6149                       # number of WritebackClean accesses(hits+misses) (Count)
system.l2.WritebackClean.accesses::total         6149                       # number of WritebackClean accesses(hits+misses) (Count)
system.l2.WritebackDirty.hits::writebacks       302086                       # number of WritebackDirty hits (Count)
system.l2.WritebackDirty.hits::total           302086                       # number of WritebackDirty hits (Count)
system.l2.WritebackDirty.accesses::writebacks       302086                       # number of WritebackDirty accesses(hits+misses) (Count)
system.l2.WritebackDirty.accesses::total       302086                       # number of WritebackDirty accesses(hits+misses) (Count)
system.l2.power_state.pwrStateResidencyTicks::UNDEFINED  26885053500                       # Cumulative time (in ticks) in various power states (Tick)
system.l2.tags.tagsInUse                 30886.773581                       # Average ticks per tags in use ((Tick/Count))
system.l2.tags.totalRefs                       618094                       # Total number of references to valid blocks. (Count)
system.l2.tags.sampledRefs                     304125                       # Sample count of references to valid blocks. (Count)
system.l2.tags.avgRefs                       2.032368                       # Average number of references to valid blocks. ((Count/Count))
system.l2.tags.warmupTick                       77000                       # The tick when the warmup percentage was hit. (Tick)
system.l2.tags.occupancies::writebacks       5.386911                       # Average occupied blocks per tick, per requestor ((Count/Tick))
system.l2.tags.occupancies::cpu.inst        94.056776                       # Average occupied blocks per tick, per requestor ((Count/Tick))
system.l2.tags.occupancies::cpu.data     30787.329895                       # Average occupied blocks per tick, per requestor ((Count/Tick))
system.l2.tags.avgOccs::writebacks           0.000164                       # Average percentage of cache occupancy ((Ratio/Tick))
system.l2.tags.avgOccs::cpu.inst             0.002870                       # Average percentage of cache occupancy ((Ratio/Tick))
system.l2.tags.avgOccs::cpu.data             0.939555                       # Average percentage of cache occupancy ((Ratio/Tick))
system.l2.tags.avgOccs::total                0.942590                       # Average percentage of cache occupancy ((Ratio/Tick))
system.l2.tags.occupanciesTaskId::1024          32768                       # Occupied blocks per task id (Count)
system.l2.tags.ageTaskId_1024::0                  115                       # Occupied blocks per task id, per block age (Count)
system.l2.tags.ageTaskId_1024::1                 1017                       # Occupied blocks per task id, per block age (Count)
system.l2.tags.ageTaskId_1024::2                10167                       # Occupied blocks per task id, per block age (Count)
system.l2.tags.ageTaskId_1024::3                21469                       # Occupied blocks per task id, per block age (Count)
[...]
system.mem_ctrls.dram.perBankWrBursts::12        16907                       # Per bank write bursts (Count)
system.mem_ctrls.dram.perBankWrBursts::13        16944                       # Per bank write bursts (Count)
system.mem_ctrls.dram.perBankWrBursts::14        16962                       # Per bank write bursts (Count)
system.mem_ctrls.dram.perBankWrBursts::15        16913                       # Per bank write bursts (Count)
system.mem_ctrls.dram.totQLat              3125323250                       # Total ticks spent queuing (Tick)
system.mem_ctrls.dram.totBusLat            1520335000                       # Total ticks spent in databus transfers (Tick)
system.mem_ctrls.dram.totMemAccLat         8826579500                       # Total ticks spent from burst creation until serviced by the DRAM (Tick)
system.mem_ctrls.dram.avgQLat                10278.40                       # Average queueing delay per DRAM burst ((Tick/Count))
system.mem_ctrls.dram.avgBusLat               5000.00                       # Average bus latency per DRAM burst ((Tick/Count))
system.mem_ctrls.dram.avgMemAccLat           29028.40                       # Average memory access latency per DRAM burst ((Tick/Count))
system.mem_ctrls.dram.readRowHits              279587                       # Number of row buffer hits during reads (Count)
system.mem_ctrls.dram.writeRowHits             251147                       # Number of row buffer hits during writes (Count)
system.mem_ctrls.dram.readRowHitRate            91.95                       # Row buffer hit rate for reads (Ratio)
system.mem_ctrls.dram.writeRowHitRate           92.92                       # Row buffer hit rate for writes (Ratio)
system.mem_ctrls.dram.bytesPerActivate::samples        43607                       # Bytes accessed per row activation (Byte)
system.mem_ctrls.dram.bytesPerActivate::mean   842.923751                       # Bytes accessed per row activation (Byte)
system.mem_ctrls.dram.bytesPerActivate::gmean   725.208605                       # Bytes accessed per row activation (Byte)
system.mem_ctrls.dram.bytesPerActivate::stdev   307.340982                       # Bytes accessed per row activation (Byte)
system.mem_ctrls.dram.bytesPerActivate::0-127         1452      3.33%      3.33% # Bytes accessed per row activation (Byte)
system.mem_ctrls.dram.bytesPerActivate::128-255         2713      6.22%      9.55% # Bytes accessed per row activation (Byte)
system.mem_ctrls.dram.bytesPerActivate::256-383         1657      3.80%     13.35% # Bytes accessed per row activation (Byte)
system.mem_ctrls.dram.bytesPerActivate::384-511         1883      4.32%     17.67% # Bytes accessed per row activation (Byte)
system.mem_ctrls.dram.bytesPerActivate::512-639         1196      2.74%     20.41% # Bytes accessed per row activation (Byte)
system.mem_ctrls.dram.bytesPerActivate::640-767         1598      3.66%     24.08% # Bytes accessed per row activation (Byte)
system.mem_ctrls.dram.bytesPerActivate::768-895         2190      5.02%     29.10% # Bytes accessed per row activation (Byte)
system.mem_ctrls.dram.bytesPerActivate::896-1023         2071      4.75%     33.85% # Bytes accessed per row activation (Byte)
system.mem_ctrls.dram.bytesPerActivate::1024-1151        28847     66.15%    100.00% # Bytes accessed per row activation (Byte)
system.mem_ctrls.dram.bytesPerActivate::total        43607                       # Bytes accessed per row activation (Byte)
system.mem_ctrls.dram.bytesRead              19460288                       # Total bytes read (Byte)
system.mem_ctrls.dram.bytesWritten           17297600                       # Total bytes written (Byte)
system.mem_ctrls.dram.avgRdBW              723.832965                       # Average DRAM read bandwidth in MiBytes/s ((Byte/Second))
system.mem_ctrls.dram.avgWrBW              643.390946                       # Average DRAM write bandwidth in MiBytes/s ((Byte/Second))
system.mem_ctrls.dram.peakBW                 12800.00                       # Theoretical peak bandwidth in MiByte/s ((Byte/Second))
system.mem_ctrls.dram.busUtil                   10.68                       # Data bus utilization in percentage (Ratio)
system.mem_ctrls.dram.busUtilRead                5.65                       # Data bus utilization in percentage for reads (Ratio)
system.mem_ctrls.dram.busUtilWrite               5.03                       # Data bus utilization in percentage for writes (Ratio)
system.mem_ctrls.dram.pageHitRate               92.41                       # Row buffer hit rate, read and write combined (Ratio)
system.mem_ctrls.dram.power_state.pwrStateResidencyTicks::UNDEFINED  26885053500                       # Cumulative time (in ticks) in various power states (Tick)
system.mem_ctrls.dram.rank0.actEnergy       154795200                       # Energy for activate commands per rank (pJ) (Joule)
system.mem_ctrls.dram.rank0.preEnergy        82271805                       # Energy for precharge commands per rank (pJ) (Joule)
system.mem_ctrls.dram.rank0.readEnergy     1083602100                       # Energy for read commands per rank (pJ) (Joule)
system.mem_ctrls.dram.rank0.writeEnergy     703629900                       # Energy for write commands per rank (pJ) (Joule)
system.mem_ctrls.dram.rank0.refreshEnergy 2121737280.000000                       # Energy for refresh commands per rank (pJ) (Joule)
system.mem_ctrls.dram.rank0.actBackEnergy   6470554500                       # Energy for active background per rank (pJ) (Joule)
system.mem_ctrls.dram.rank0.preBackEnergy   4874972640                       # Energy for precharge background per rank (pJ) (Joule)
system.mem_ctrls.dram.rank0.actPowerDownEnergy            0                       # Energy for active power-down per rank (pJ) (Joule)
system.mem_ctrls.dram.rank0.prePowerDownEnergy            0                       # Energy for precharge power-down per rank (pJ) (Joule)
system.mem_ctrls.dram.rank0.selfRefreshEnergy            0                       # Energy for self refresh per rank (pJ) (Joule)
system.mem_ctrls.dram.rank0.totalEnergy   15491563425                       # Total energy per rank (pJ) (Joule)
system.mem_ctrls.dram.rank0.averagePower   576.214714                       # Core power per rank (mW) (Watt)
system.mem_ctrls.dram.rank0.totalIdleTime            0                       # Total Idle time Per DRAM Rank (Tick)
system.mem_ctrls.dram.rank0.pwrStateTime::IDLE  12476967000                       # Time in different power states (Tick)
system.mem_ctrls.dram.rank0.pwrStateTime::REF    897520000                       # Time in different power states (Tick)
system.mem_ctrls.dram.rank0.pwrStateTime::SREF            0                       # Time in different power states (Tick)
system.mem_ctrls.dram.rank0.pwrStateTime::PRE_PDN            0                       # Time in different power states (Tick)
system.mem_ctrls.dram.rank0.pwrStateTime::ACT  13510566500                       # Time in different power states (Tick)
system.mem_ctrls.dram.rank0.pwrStateTime::ACT_PDN            0                       # Time in different power states (Tick)
system.mem_ctrls.dram.rank1.actEnergy       156565920                       # Energy for activate commands per rank (pJ) (Joule)
system.mem_ctrls.dram.rank1.preEnergy        83216760                       # Energy for precharge commands per rank (pJ) (Joule)
system.mem_ctrls.dram.rank1.readEnergy     1087436280                       # Energy for read commands per rank (pJ) (Joule)
system.mem_ctrls.dram.rank1.writeEnergy     707205600                       # Energy for write commands per rank (pJ) (Joule)
system.mem_ctrls.dram.rank1.refreshEnergy 2121737280.000000                       # Energy for refresh commands per rank (pJ) (Joule)
system.mem_ctrls.dram.rank1.actBackEnergy   6493187490                       # Energy for active background per rank (pJ) (Joule)
system.mem_ctrls.dram.rank1.preBackEnergy   4855913280                       # Energy for precharge background per rank (pJ) (Joule)
system.mem_ctrls.dram.rank1.actPowerDownEnergy            0                       # Energy for active power-down per rank (pJ) (Joule)
system.mem_ctrls.dram.rank1.prePowerDownEnergy            0                       # Energy for precharge power-down per rank (pJ) (Joule)
system.mem_ctrls.dram.rank1.selfRefreshEnergy            0                       # Energy for self refresh per rank (pJ) (Joule)
system.mem_ctrls.dram.rank1.totalEnergy   15505262610                       # Total energy per rank (pJ) (Joule)
system.mem_ctrls.dram.rank1.averagePower   576.724261                       # Core power per rank (mW) (Watt)
system.mem_ctrls.dram.rank1.totalIdleTime            0                       # Total Idle time Per DRAM Rank (Tick)
system.mem_ctrls.dram.rank1.pwrStateTime::IDLE  12426446250                       # Time in different power states (Tick)
system.mem_ctrls.dram.rank1.pwrStateTime::REF    897520000                       # Time in different power states (Tick)
system.mem_ctrls.dram.rank1.pwrStateTime::SREF            0                       # Time in different power states (Tick)
system.mem_ctrls.dram.rank1.pwrStateTime::PRE_PDN            0                       # Time in different power states (Tick)
system.mem_ctrls.dram.rank1.pwrStateTime::ACT  13561087250                       # Time in different power states (Tick)
system.mem_ctrls.dram.rank1.pwrStateTime::ACT_PDN            0                       # Time in different power states (Tick)
system.mem_ctrls.power_state.pwrStateResidencyTicks::UNDEFINED  26885053500                       # Cumulative time (in ticks) in various power states (Tick)
system.membus.transDist::ReadResp                1085                       # Transaction distribution (Count)
system.membus.transDist::WritebackDirty        270302                       # Transaction distribution (Count)
system.membus.transDist::CleanEvict               799                       # Transaction distribution (Count)
system.membus.transDist::ReadExReq             302982                       # Transaction distribution (Count)
system.membus.transDist::ReadExResp            302982                       # Transaction distribution (Count)
system.membus.transDist::ReadSharedReq           1085                       # Transaction distribution (Count)
system.membus.transDist::InvalidateReq             58                       # Transaction distribution (Count)
system.membus.pktCount_system.l2.mem_side_port::system.mem_ctrls.port       879293                       # Packet count per connected requestor and responder (Count)
system.membus.pktCount::total                  879293                       # Packet count per connected requestor and responder (Count)
system.membus.pktSize_system.l2.mem_side_port::system.mem_ctrls.port     36759616                       # Cumulative packet size per connected requestor and responder (Byte)
system.membus.pktSize::total                 36759616                       # Cumulative packet size per connected requestor and responder (Byte)
system.membus.snoops                                0                       # Total snoops (Count)
system.membus.snoopTraffic                          0                       # Total snoop traffic (Byte)
system.membus.snoopFanout::samples             304125                       # Request fanout histogram (Count)
system.membus.snoopFanout::mean                     0                       # Request fanout histogram (Count)
system.membus.snoopFanout::stdev                    0                       # Request fanout histogram (Count)
system.membus.snoopFanout::underflows               0      0.00%      0.00% # Request fanout histogram (Count)
system.membus.snoopFanout::0                   304125    100.00%    100.00% # Request fanout histogram (Count)
system.membus.snoopFanout::1                        0      0.00%    100.00% # Request fanout histogram (Count)
system.membus.snoopFanout::overflows                0      0.00%    100.00% # Request fanout histogram (Count)
system.membus.snoopFanout::min_value                0                       # Request fanout histogram (Count)
system.membus.snoopFanout::max_value                0                       # Request fanout histogram (Count)
system.membus.snoopFanout::total               304125                       # Request fanout histogram (Count)
system.membus.power_state.pwrStateResidencyTicks::UNDEFINED  26885053500                       # Cumulative time (in ticks) in various power states (Tick)
system.membus.reqLayer0.occupancy          1661392000                       # Layer occupancy (ticks) (Tick)
system.membus.reqLayer0.utilization               0.1                       # Layer utilization (Ratio)
system.membus.respLayer1.occupancy         1599592000                       # Layer occupancy (ticks) (Tick)
system.membus.respLayer1.utilization              0.1                       # Layer utilization (Ratio)
system.membus.snoop_filter.totRequests         575226                       # Total number of requests made to the snoop filter. (Count)
system.membus.snoop_filter.hitSingleRequests       271101                       # Number of requests hitting in the snoop filter with a single holder of the requested data. (Count)
system.membus.snoop_filter.hitMultiRequests            0                       # Number of requests hitting in the snoop filter with multiple (>1) holders of the requested data. (Count)
system.membus.snoop_filter.totSnoops                0                       # Total number of snoops made to the snoop filter. (Count)
system.membus.snoop_filter.hitSingleSnoops            0                       # Number of snoops hitting in the snoop filter with a single holder of the requested data. (Count)
system.membus.snoop_filter.hitMultiSnoops            0                       # Number of snoops hitting in the snoop filter with multiple (>1) holders of the requested data. (Count)
system.tol2bus.transDist::ReadResp               6681                       # Transaction distribution (Count)
system.tol2bus.transDist::WritebackDirty       572388                       # Transaction distribution (Count)
system.tol2bus.transDist::WritebackClean         6160                       # Transaction distribution (Count)
system.tol2bus.transDist::CleanEvict             1251                       # Transaction distribution (Count)
system.tol2bus.transDist::ReadExReq            302983                       # Transaction distribution (Count)
system.tol2bus.transDist::ReadExResp           302983                       # Transaction distribution (Count)
system.tol2bus.transDist::ReadCleanReq           6416                       # Transaction distribution (Count)
system.tol2bus.transDist::ReadSharedReq           265                       # Transaction distribution (Count)
system.tol2bus.transDist::InvalidateReq            58                       # Transaction distribution (Count)
system.tol2bus.transDist::InvalidateResp           58                       # Transaction distribution (Count)
system.tol2bus.pktCount_system.cpu.icache.mem_side_port::system.l2.cpu_side_port        18992                       # Packet count per connected requestor and responder (Count)
system.tol2bus.pktCount_system.cpu.dcache.mem_side_port::system.l2.cpu_side_port       908894                       # Packet count per connected requestor and responder (Count)
system.tol2bus.pktCount::total                 927886                       # Packet count per connected requestor and responder (Count)
system.tol2bus.pktSize_system.cpu.icache.mem_side_port::system.l2.cpu_side_port       804864                       # Cumulative packet size per connected requestor and responder (Byte)
system.tol2bus.pktSize_system.cpu.dcache.mem_side_port::system.l2.cpu_side_port     38741376                       # Cumulative packet size per connected requestor and responder (Byte)
system.tol2bus.pktSize::total                39546240                       # Cumulative packet size per connected requestor and responder (Byte)
system.tol2bus.snoops                          271357                       # Total snoops (Count)
system.tol2bus.snoopTraffic                  17299328                       # Total snoop traffic (Byte)
system.tol2bus.snoopFanout::samples            581079                       # Request fanout histogram (Count)
system.tol2bus.snoopFanout::mean             0.000461                       # Request fanout histogram (Count)
system.tol2bus.snoopFanout::stdev            0.021471                       # Request fanout histogram (Count)
system.tol2bus.snoopFanout::underflows              0      0.00%      0.00% # Request fanout histogram (Count)
system.tol2bus.snoopFanout::0                  580811     99.95%     99.95% # Request fanout histogram (Count)
system.tol2bus.snoopFanout::1                     268      0.05%    100.00% # Request fanout histogram (Count)
system.tol2bus.snoopFanout::2                       0      0.00%    100.00% # Request fanout histogram (Count)
system.tol2bus.snoopFanout::overflows               0      0.00%    100.00% # Request fanout histogram (Count)
system.tol2bus.snoopFanout::min_value               0                       # Request fanout histogram (Count)
system.tol2bus.snoopFanout::max_value               1                       # Request fanout histogram (Count)
system.tol2bus.snoopFanout::total              581079                       # Request fanout histogram (Count)
system.tol2bus.power_state.pwrStateResidencyTicks::UNDEFINED  26885053500                       # Cumulative time (in ticks) in various power states (Tick)
system.tol2bus.reqLayer0.occupancy          617328000                       # Layer occupancy (ticks) (Tick)
system.tol2bus.reqLayer0.utilization              0.0                       # Layer utilization (Ratio)
system.tol2bus.respLayer0.occupancy           9624000                       # Layer occupancy (ticks) (Tick)
system.tol2bus.respLayer0.utilization             0.0                       # Layer utilization (Ratio)
system.tol2bus.respLayer1.occupancy         454901000                       # Layer occupancy (ticks) (Tick)
system.tol2bus.respLayer1.utilization             0.0                       # Layer utilization (Ratio)
system.tol2bus.snoop_filter.totRequests        618164                       # Total number of requests made to the snoop filter. (Count)
system.tol2bus.snoop_filter.hitSingleRequests       308442                       # Number of requests hitting in the snoop filter with a single holder of the requested data. (Count)
system.tol2bus.snoop_filter.hitMultiRequests           12                       # Number of requests hitting in the snoop filter with multiple (>1) holders of the requested data. (Count)
system.tol2bus.snoop_filter.totSnoops             256                       # Total number of snoops made to the snoop filter. (Count)
system.tol2bus.snoop_filter.hitSingleSnoops          256                       # Number of snoops hitting in the snoop filter with a single holder of the requested data. (Count)
system.tol2bus.snoop_filter.hitMultiSnoops            0                       # Number of snoops hitting in the snoop filter with multiple (>1) holders of the requested data. (Count)
system.voltage_domain.voltage                       1                       # Voltage in Volts (Volt)
system.workload.inst.arm                            0                       # number of arm instructions executed (Count)
system.workload.inst.quiesce                        0                       # number of quiesce instructions executed (Count)
system.cpu.idleCycles                        35536343                       # Total number of cycles that the object has spent stopped (Unspecified)
system.cpu.tickCycles                        18233764                       # Number of cycles that the object actually ticked (Unspecified)

---------- End Simulation Statistics   ----------
