
---------- Begin Simulation Statistics ----------
simSeconds                                   0.009647                       # Number of seconds simulated (Second)
simTicks                                   9646593500                       # Number of ticks simulated (Tick)
finalTick                                  9646593500                       # Number of ticks from beginning of simulation (restored from checkpoints and never reset) (Tick)
simFreq                                  1000000000000                       # The number of ticks per simulated second ((Tick/Second))
hostSeconds                                     42.28                       # Real time elapsed on the host (Second)
hostTickRate                                228170471                       # The number of ticks simulated per host second (ticks/s) ((Tick/Second))
hostMemory                                    8729992                       # Number of bytes of host memory used (Byte)
simInsts                                     10000000                       # Number of instructions simulated (Count)
simOps                                       11078096                       # Number of ops (including micro ops) simulated (Count)
hostInstRate                                   236528                       # Simulator instruction rate (inst/s) ((Count/Second))
hostOpRate                                     262028                       # Simulator op (including micro ops) rate (op/s) ((Count/Second))
system.clk_domain.clock                          1000                       # Clock period in ticks (Tick)
system.cpu.numCycles                         19293187                       # Number of cpu cycles simulated (Cycle)
system.cpu.numWorkItemsStarted                      0                       # Number of work items this cpu started (Count)
system.cpu.numWorkItemsCompleted                    0                       # Number of work items this cpu completed (Count)
system.cpu.numInsts                          10000000                       # Number of instructions committed (Count)
system.cpu.numOps                            11078096                       # Number of ops (including micro ops) committed (Count)
system.cpu.numDiscardedOps                      79162                       # Number of ops (including micro ops) which were discarded before commit (Count)
system.cpu.numFetchSuspends                         0                       # Number of times Execute suspended instruction fetching (Count)
system.cpu.cpi                               1.929319                       # CPI: cycles per instruction ((Cycle/Count))
system.cpu.ipc                               0.518318                       # IPC: instructions per cycle ((Count/Cycle))
system.cpu.committedInstType_0::No_OpClass          184      0.00%      0.00% # Class of committed instruction (Count)
system.cpu.committedInstType_0::IntAlu        7880252     71.13%     71.14% # Class of committed instruction (Count)
system.cpu.committedInstType_0::IntMult         38696      0.35%     71.48% # Class of committed instruction (Count)
system.cpu.committedInstType_0::IntDiv          10422      0.09%     71.58% # Class of committed instruction (Count)
system.cpu.committedInstType_0::FloatAdd         5098      0.05%     71.62% # Class of committed instruction (Count)
system.cpu.committedInstType_0::FloatCmp            6      0.00%     71.62% # Class of committed instruction (Count)
system.cpu.committedInstType_0::FloatCvt            0      0.00%     71.62% # Class of committed instruction (Count)
system.cpu.committedInstType_0::FloatMult           15      0.00%     71.62% # Class of committed instruction (Count)
system.cpu.committedInstType_0::FloatMultAcc           21      0.00%     71.63% # Class of committed instruction (Count)
system.cpu.committedInstType_0::FloatDiv            9      0.00%     71.63% # Class of committed instruction (Count)
system.cpu.committedInstType_0::FloatMisc        18228      0.16%     71.79% # Class of committed instruction (Count)
system.cpu.committedInstType_0::FloatSqrt            0      0.00%     71.79% # Class of committed instruction (Count)
system.cpu.committedInstType_0::SimdAdd           429      0.00%     71.79% # Class of committed instruction (Count)
system.cpu.committedInstType_0::SimdAddAcc            0      0.00%     71.79% # Class of committed instruction (Count)
system.cpu.committedInstType_0::SimdAlu           645      0.01%     71.80% # Class of committed instruction (Count)
system.cpu.committedInstType_0::SimdCmp           594      0.01%     71.80% # Class of committed instruction (Count)
system.cpu.committedInstType_0::SimdCvt             0      0.00%     71.80% # Class of committed instruction (Count)
system.cpu.committedInstType_0::SimdMisc          524      0.00%     71.81% # Class of committed instruction (Count)
system.cpu.committedInstType_0::SimdMult            0      0.00%     71.81% # Class of committed instruction (Count)
system.cpu.committedInstType_0::SimdMultAcc            0      0.00%     71.81% # Class of committed instruction (Count)
system.cpu.committedInstType_0::SimdShift            0      0.00%     71.81% # Class of committed instruction (Count)
system.cpu.committedInstType_0::SimdShiftAcc            0      0.00%     71.81% # Class of committed instruction (Count)
system.cpu.committedInstType_0::SimdDiv             0      0.00%     71.81% # Class of committed instruction (Count)
system.cpu.committedInstType_0::SimdSqrt            0      0.00%     71.81% # Class of committed instruction (Count)
system.cpu.committedInstType_0::SimdFloatAdd            0      0.00%     71.81% # Class of committed instruction (Count)
system.cpu.committedInstType_0::SimdFloatAlu            0      0.00%     71.81% # Class of committed instruction (Count)
system.cpu.committedInstType_0::SimdFloatCmp            0      0.00%     71.81% # Class of committed instruction (Count)
system.cpu.committedInstType_0::SimdFloatCvt            0      0.00%     71.81% # Class of committed instruction (Count)
system.cpu.committedInstType_0::SimdFloatDiv            0      0.00%     71.81% # Class of committed instruction (Count)
system.cpu.committedInstType_0::SimdFloatMisc            0      0.00%     71.81% # Class of committed instruction (Count)
system.cpu.committedInstType_0::SimdFloatMult            0      0.00%     71.81% # Class of committed instruction (Count)
system.cpu.committedInstType_0::SimdFloatMultAcc            0      0.00%     71.81% # Class of committed instruction (Count)
system.cpu.committedInstType_0::SimdFloatSqrt            0      0.00%     71.81% # Class of committed instruction (Count)
system.cpu.committedInstType_0::SimdReduceAdd            0      0.00%     71.81% # Class of committed instruction (Count)
system.cpu.committedInstType_0::SimdReduceAlu            0      0.00%     71.81% # Class of committed instruction (Count)
system.cpu.committedInstType_0::SimdReduceCmp            0      0.00%     71.81% # Class of committed instruction (Count)
system.cpu.committedInstType_0::SimdFloatReduceAdd            0      0.00%     71.81% # Class of committed instruction (Count)
system.cpu.committedInstType_0::SimdFloatReduceCmp            0      0.00%     71.81% # Class of committed instruction (Count)
system.cpu.committedInstType_0::SimdAes             0      0.00%     71.81% # Class of committed instruction (Count)
system.cpu.committedInstType_0::SimdAesMix            0      0.00%     71.81% # Class of committed instruction (Count)
system.cpu.committedInstType_0::SimdSha1Hash            0      0.00%     71.81% # Class of committed instruction (Count)
system.cpu.committedInstType_0::SimdSha1Hash2            0      0.00%     71.81% # Class of committed instruction (Count)
system.cpu.committedInstType_0::SimdSha256Hash            0      0.00%     71.81% # Class of committed instruction (Count)
system.cpu.committedInstType_0::SimdSha256Hash2            0      0.00%     71.81% # Class of committed instruction (Count)
system.cpu.committedInstType_0::SimdShaSigma2            0      0.00%     71.81% # Class of committed instruction (Count)
system.cpu.committedInstType_0::SimdShaSigma3            0      0.00%     71.81% # Class of committed instruction (Count)
system.cpu.committedInstType_0::SimdPredAlu            0      0.00%     71.81% # Class of committed instruction (Count)
system.cpu.committedInstType_0::MemRead       1800500     16.25%     88.06% # Class of committed instruction (Count)
system.cpu.committedInstType_0::MemWrite      1322473     11.94%    100.00% # Class of committed instruction (Count)
system.cpu.committedInstType_0::FloatMemRead            0      0.00%    100.00% # Class of committed instruction (Count)
system.cpu.committedInstType_0::FloatMemWrite            0      0.00%    100.00% # Class of committed instruction (Count)
system.cpu.committedInstType_0::IprAccess            0      0.00%    100.00% # Class of committed instruction (Count)
system.cpu.committedInstType_0::InstPrefetch            0      0.00%    100.00% # Class of committed instruction (Count)
system.cpu.committedInstType_0::total        11078096                       # Class of committed instruction (Count)
system.cpu.branchPred.lookups                 2222182                       # Number of BP lookups (Count)
system.cpu.branchPred.condPredicted           1740611                       # Number of conditional branches predicted (Count)
system.cpu.branchPred.condIncorrect             34404                       # Number of conditional branches incorrect (Count)
system.cpu.branchPred.BTBLookups              1089522                       # Number of BTB lookups (Count)
system.cpu.branchPred.BTBHits                 1084962                       # Number of BTB hits (Count)
system.cpu.branchPred.BTBHitRatio            0.995815                       # BTB Hit Ratio (Ratio)
system.cpu.branchPred.RASUsed                  100130                       # Number of times the RAS was used to get a target. (Count)
system.cpu.branchPred.RASIncorrect               3917                       # Number of incorrect RAS predictions. (Count)
system.cpu.branchPred.indirectLookups           29693                       # Number of indirect predictor lookups. (Count)
system.cpu.branchPred.indirectHits              29298                       # Number of indirect target hits. (Count)
system.cpu.branchPred.indirectMisses              395                       # Number of indirect misses. (Count)
system.cpu.branchPred.indirectMispredicted          151                       # Number of mispredicted indirect branches. (Count)
system.cpu.dcache.demandHits::cpu.data        3102922                       # number of demand (read+write) hits (Count)
system.cpu.dcache.demandHits::total           3102922                       # number of demand (read+write) hits (Count)
system.cpu.dcache.overallHits::cpu.data       3116143                       # number of overall hits (Count)
system.cpu.dcache.overallHits::total          3116143                       # number of overall hits (Count)
system.cpu.dcache.demandMisses::cpu.data         4835                       # number of demand (read+write) misses (Count)
system.cpu.dcache.demandMisses::total            4835                       # number of demand (read+write) misses (Count)
system.cpu.dcache.overallMisses::cpu.data         4838                       # number of overall misses (Count)
system.cpu.dcache.overallMisses::total           4838                       # number of overall misses (Count)
system.cpu.dcache.demandMissLatency::cpu.data    405302000                       # number of demand (read+write) miss ticks (Tick)
system.cpu.dcache.demandMissLatency::total    405302000                       # number of demand (read+write) miss ticks (Tick)
system.cpu.dcache.overallMissLatency::cpu.data    405302000                       # number of overall miss ticks (Tick)
system.cpu.dcache.overallMissLatency::total    405302000                       # number of overall miss ticks (Tick)
system.cpu.dcache.demandAccesses::cpu.data      3107757                       # number of demand (read+write) accesses (Count)
system.cpu.dcache.demandAccesses::total       3107757                       # number of demand (read+write) accesses (Count)
system.cpu.dcache.overallAccesses::cpu.data      3120981                       # number of overall (read+write) accesses (Count)
system.cpu.dcache.overallAccesses::total      3120981                       # number of overall (read+write) accesses (Count)
system.cpu.dcache.demandMissRate::cpu.data     0.001556                       # miss rate for demand accesses (Ratio)
system.cpu.dcache.demandMissRate::total      0.001556                       # miss rate for demand accesses (Ratio)
system.cpu.dcache.overallMissRate::cpu.data     0.001550                       # miss rate for overall accesses (Ratio)
system.cpu.dcache.overallMissRate::total     0.001550                       # miss rate for overall accesses (Ratio)
system.cpu.dcache.demandAvgMissLatency::cpu.data 83826.680455                       # average overall miss latency in ticks ((Tick/Count))
system.cpu.dcache.demandAvgMissLatency::total 83826.680455                       # average overall miss latency in ticks ((Tick/Count))
system.cpu.dcache.overallAvgMissLatency::cpu.data 83774.700289                       # average overall miss latency ((Tick/Count))
system.cpu.dcache.overallAvgMissLatency::total 83774.700289                       # average overall miss latency ((Tick/Count))
system.cpu.dcache.blockedCycles::no_mshrs            0                       # number of cycles access was blocked (Cycle)
system.cpu.dcache.blockedCycles::no_targets            0                       # number of cycles access was blocked (Cycle)
system.cpu.dcache.blockedCauses::no_mshrs            0                       # number of times access was blocked (Count)
system.cpu.dcache.blockedCauses::no_targets            0                       # number of times access was blocked (Count)
system.cpu.dcache.avgBlocked::no_mshrs            nan                       # average number of cycles each access was blocked ((Cycle/Count))
system.cpu.dcache.avgBlocked::no_targets          nan                       # average number of cycles each access was blocked ((Cycle/Count))
system.cpu.dcache.writebacks::writebacks         1371                       # number of writebacks (Count)
system.cpu.dcache.writebacks::total              1371                       # number of writebacks (Count)
system.cpu.dcache.demandMshrHits::cpu.data         2201                       # number of demand (read+write) MSHR hits (Count)
system.cpu.dcache.demandMshrHits::total          2201                       # number of demand (read+write) MSHR hits (Count)
system.cpu.dcache.overallMshrHits::cpu.data         2201                       # number of overall MSHR hits (Count)
system.cpu.dcache.overallMshrHits::total         2201                       # number of overall MSHR hits (Count)
system.cpu.dcache.demandMshrMisses::cpu.data         2634                       # number of demand (read+write) MSHR misses (Count)
system.cpu.dcache.demandMshrMisses::total         2634                       # number of demand (read+write) MSHR misses (Count)
system.cpu.dcache.overallMshrMisses::cpu.data         2637                       # number of overall MSHR misses (Count)
system.cpu.dcache.overallMshrMisses::total         2637                       # number of overall MSHR misses (Count)
system.cpu.dcache.demandMshrMissLatency::cpu.data    214889500                       # number of demand (read+write) MSHR miss ticks (Tick)
system.cpu.dcache.demandMshrMissLatency::total    214889500                       # number of demand (read+write) MSHR miss ticks (Tick)
system.cpu.dcache.overallMshrMissLatency::cpu.data    215121500                       # number of overall MSHR miss ticks (Tick)
system.cpu.dcache.overallMshrMissLatency::total    215121500                       # number of overall MSHR miss ticks (Tick)
system.cpu.dcache.demandMshrMissRate::cpu.data     0.000848                       # mshr miss ratio for demand accesses (Ratio)
system.cpu.dcache.demandMshrMissRate::total     0.000848                       # mshr miss ratio for demand accesses (Ratio)
system.cpu.dcache.overallMshrMissRate::cpu.data     0.000845                       # mshr miss ratio for overall accesses (Ratio)
system.cpu.dcache.overallMshrMissRate::total     0.000845                       # mshr miss ratio for overall accesses (Ratio)
system.cpu.dcache.demandAvgMshrMissLatency::cpu.data 81582.953683                       # average overall mshr miss latency ((Tick/Count))
system.cpu.dcache.demandAvgMshrMissLatency::total 81582.953683                       # average overall mshr miss latency ((Tick/Count))
system.cpu.dcache.overallAvgMshrMissLatency::cpu.data 81578.119075                       # average overall mshr miss latency ((Tick/Count))
system.cpu.dcache.overallAvgMshrMissLatency::total 81578.119075                       # average overall mshr miss latency ((Tick/Count))
system.cpu.dcache.replacements                   1613                       # number of replacements (Count)
system.cpu.dcache.LoadLockedReq.hits::cpu.data         4115                       # number of LoadLockedReq hits (Count)
system.cpu.dcache.LoadLockedReq.hits::total         4115                       # number of LoadLockedReq hits (Count)
system.cpu.dcache.LoadLockedReq.accesses::cpu.data         4115                       # number of LoadLockedReq accesses(hits+misses) (Count)
system.cpu.dcache.LoadLockedReq.accesses::total         4115                       # number of LoadLockedReq accesses(hits+misses) (Count)
system.cpu.dcache.ReadReq.hits::cpu.data      1789032                       # number of ReadReq hits (Count)
system.cpu.dcache.ReadReq.hits::total         1789032                       # number of ReadReq hits (Count)
system.cpu.dcache.ReadReq.misses::cpu.data          428                       # number of ReadReq misses (Count)
system.cpu.dcache.ReadReq.misses::total           428                       # number of ReadReq misses (Count)
system.cpu.dcache.ReadReq.missLatency::cpu.data     25396500                       # number of ReadReq miss ticks (Tick)
system.cpu.dcache.ReadReq.missLatency::total     25396500                       # number of ReadReq miss ticks (Tick)
system.cpu.dcache.ReadReq.accesses::cpu.data      1789460                       # number of ReadReq accesses(hits+misses) (Count)
system.cpu.dcache.ReadReq.accesses::total      1789460                       # number of ReadReq accesses(hits+misses) (Count)
system.cpu.dcache.ReadReq.missRate::cpu.data     0.000239                       # miss rate for ReadReq accesses (Ratio)
system.cpu.dcache.ReadReq.missRate::total     0.000239                       # miss rate for ReadReq accesses (Ratio)
system.cpu.dcache.ReadReq.avgMissLatency::cpu.data 59337.616822                       # average ReadReq miss latency ((Tick/Count))
system.cpu.dcache.ReadReq.avgMissLatency::total 59337.616822                       # average ReadReq miss latency ((Tick/Count))
system.cpu.dcache.ReadReq.mshrHits::cpu.data           20                       # number of ReadReq MSHR hits (Count)
system.cpu.dcache.ReadReq.mshrHits::total           20                       # number of ReadReq MSHR hits (Count)
system.cpu.dcache.ReadReq.mshrMisses::cpu.data          408                       # number of ReadReq MSHR misses (Count)
system.cpu.dcache.ReadReq.mshrMisses::total          408                       # number of ReadReq MSHR misses (Count)
system.cpu.dcache.ReadReq.mshrMissLatency::cpu.data     23379500                       # number of ReadReq MSHR miss ticks (Tick)
system.cpu.dcache.ReadReq.mshrMissLatency::total     23379500                       # number of ReadReq MSHR miss ticks (Tick)
system.cpu.dcache.ReadReq.mshrMissRate::cpu.data     0.000228                       # mshr miss rate for ReadReq accesses (Ratio)
system.cpu.dcache.ReadReq.mshrMissRate::total     0.000228                       # mshr miss rate for ReadReq accesses (Ratio)
system.cpu.dcache.ReadReq.avgMshrMissLatency::cpu.data 57302.696078                       # average ReadReq mshr miss latency ((Tick/Count))
system.cpu.dcache.ReadReq.avgMshrMissLatency::total 57302.696078                       # average ReadReq mshr miss latency ((Tick/Count))
system.cpu.dcache.SoftPFReq.hits::cpu.data        13221                       # number of SoftPFReq hits (Count)
system.cpu.dcache.SoftPFReq.hits::total         13221                       # number of SoftPFReq hits (Count)
system.cpu.dcache.SoftPFReq.misses::cpu.data            3                       # number of SoftPFReq misses (Count)
system.cpu.dcache.SoftPFReq.misses::total            3                       # number of SoftPFReq misses (Count)
system.cpu.dcache.SoftPFReq.accesses::cpu.data        13224                       # number of SoftPFReq accesses(hits+misses) (Count)
system.cpu.dcache.SoftPFReq.accesses::total        13224                       # number of SoftPFReq accesses(hits+misses) (Count)
system.cpu.dcache.SoftPFReq.missRate::cpu.data     0.000227                       # miss rate for SoftPFReq accesses (Ratio)
system.cpu.dcache.SoftPFReq.missRate::total     0.000227                       # miss rate for SoftPFReq accesses (Ratio)
system.cpu.dcache.SoftPFReq.mshrMisses::cpu.data            3                       # number of SoftPFReq MSHR misses (Count)
system.cpu.dcache.SoftPFReq.mshrMisses::total            3                       # number of SoftPFReq MSHR misses (Count)
system.cpu.dcache.SoftPFReq.mshrMissLatency::cpu.data       232000                       # number of SoftPFReq MSHR miss ticks (Tick)
system.cpu.dcache.SoftPFReq.mshrMissLatency::total       232000                       # number of SoftPFReq MSHR miss ticks (Tick)
system.cpu.dcache.SoftPFReq.mshrMissRate::cpu.data     0.000227                       # mshr miss rate for SoftPFReq accesses (Ratio)
system.cpu.dcache.SoftPFReq.mshrMissRate::total     0.000227                       # mshr miss rate for SoftPFReq accesses (Ratio)
system.cpu.dcache.SoftPFReq.avgMshrMissLatency::cpu.data 77333.333333                       # average SoftPFReq mshr miss latency ((Tick/Count))
system.cpu.dcache.SoftPFReq.avgMshrMissLatency::total 77333.333333                       # average SoftPFReq mshr miss latency ((Tick/Count))
system.cpu.dcache.StoreCondReq.hits::cpu.data         4115                       # number of StoreCondReq hits (Count)
system.cpu.dcache.StoreCondReq.hits::total         4115                       # number of StoreCondReq hits (Count)
system.cpu.dcache.StoreCondReq.accesses::cpu.data         4115                       # number of StoreCondReq accesses(hits+misses) (Count)
system.cpu.dcache.StoreCondReq.accesses::total         4115                       # number of StoreCondReq accesses(hits+misses) (Count)
system.cpu.dcache.WriteLineReq.hits::cpu.data            7                       # number of WriteLineReq hits (Count)
system.cpu.dcache.WriteLineReq.hits::total            7                       # number of WriteLineReq hits (Count)
system.cpu.dcache.WriteLineReq.misses::cpu.data            8                       # number of WriteLineReq misses (Count)
system.cpu.dcache.WriteLineReq.misses::total            8                       # number of WriteLineReq misses (Count)
system.cpu.dcache.WriteLineReq.missLatency::cpu.data       251000                       # number of WriteLineReq miss ticks (Tick)
system.cpu.dcache.WriteLineReq.missLatency::total       251000                       # number of WriteLineReq miss ticks (Tick)
system.cpu.dcache.WriteLineReq.accesses::cpu.data           15                       # number of WriteLineReq accesses(hits+misses) (Count)
system.cpu.dcache.WriteLineReq.accesses::total           15                       # number of WriteLineReq accesses(hits+misses) (Count)
system.cpu.dcache.WriteLineReq.missRate::cpu.data     0.533333                       # miss rate for WriteLineReq accesses (Ratio)
system.cpu.dcache.WriteLineReq.missRate::total     0.533333                       # miss rate for WriteLineReq accesses (Ratio)
system.cpu.dcache.WriteLineReq.avgMissLatency::cpu.data        31375                       # average WriteLineReq miss latency ((Tick/Count))
system.cpu.dcache.WriteLineReq.avgMissLatency::total        31375                       # average WriteLineReq miss latency ((Tick/Count))
system.cpu.dcache.WriteLineReq.mshrMisses::cpu.data            8                       # number of WriteLineReq MSHR misses (Count)
system.cpu.dcache.WriteLineReq.mshrMisses::total            8                       # number of WriteLineReq MSHR misses (Count)
system.cpu.dcache.WriteLineReq.mshrMissLatency::cpu.data       243000                       # number of WriteLineReq MSHR miss ticks (Tick)
system.cpu.dcache.WriteLineReq.mshrMissLatency::total       243000                       # number of WriteLineReq MSHR miss ticks (Tick)
system.cpu.dcache.WriteLineReq.mshrMissRate::cpu.data     0.533333                       # mshr miss rate for WriteLineReq accesses (Ratio)
system.cpu.dcache.WriteLineReq.mshrMissRate::total     0.533333                       # mshr miss rate for WriteLineReq accesses (Ratio)
system.cpu.dcache.WriteLineReq.avgMshrMissLatency::cpu.data        30375                       # average WriteLineReq mshr miss latency ((Tick/Count))
system.cpu.dcache.WriteLineReq.avgMshrMissLatency::total        30375                       # average WriteLineReq mshr miss latency ((Tick/Count))
system.cpu.dcache.WriteReq.hits::cpu.data      1313883                       # number of WriteReq hits (Count)
system.cpu.dcache.WriteReq.hits::total        1313883                       # number of WriteReq hits (Count)
system.cpu.dcache.WriteReq.misses::cpu.data         4399                       # number of WriteReq misses (Count)
system.cpu.dcache.WriteReq.misses::total         4399                       # number of WriteReq misses (Count)
system.cpu.dcache.WriteReq.missLatency::cpu.data    379654500                       # number of WriteReq miss ticks (Tick)
system.cpu.dcache.WriteReq.missLatency::total    379654500                       # number of WriteReq miss ticks (Tick)
system.cpu.dcache.WriteReq.accesses::cpu.data      1318282                       # number of WriteReq accesses(hits+misses) (Count)
system.cpu.dcache.WriteReq.accesses::total      1318282                       # number of WriteReq accesses(hits+misses) (Count)
system.cpu.dcache.WriteReq.missRate::cpu.data     0.003337                       # miss rate for WriteReq accesses (Ratio)
system.cpu.dcache.WriteReq.missRate::total     0.003337                       # miss rate for WriteReq accesses (Ratio)
system.cpu.dcache.WriteReq.avgMissLatency::cpu.data 86304.728347                       # average WriteReq miss latency ((Tick/Count))
system.cpu.dcache.WriteReq.avgMissLatency::total 86304.728347                       # average WriteReq miss latency ((Tick/Count))
system.cpu.dcache.WriteReq.mshrHits::cpu.data         2181                       # number of WriteReq MSHR hits (Count)
system.cpu.dcache.WriteReq.mshrHits::total         2181                       # number of WriteReq MSHR hits (Count)
system.cpu.dcache.WriteReq.mshrMisses::cpu.data         2218                       # number of WriteReq MSHR misses (Count)
system.cpu.dcache.WriteReq.mshrMisses::total         2218                       # number of WriteReq MSHR misses (Count)
system.cpu.dcache.WriteReq.mshrMissLatency::cpu.data    191267000                       # number of WriteReq MSHR miss ticks (Tick)
system.cpu.dcache.WriteReq.mshrMissLatency::total    191267000                       # number of WriteReq MSHR miss ticks (Tick)
system.cpu.dcache.WriteReq.mshrMissRate::cpu.data     0.001682                       # mshr miss rate for WriteReq accesses (Ratio)
system.cpu.dcache.WriteReq.mshrMissRate::total     0.001682                       # mshr miss rate for WriteReq accesses (Ratio)
system.cpu.dcache.WriteReq.avgMshrMissLatency::cpu.data 86233.994590                       # average WriteReq mshr miss latency ((Tick/Count))
system.cpu.dcache.WriteReq.avgMshrMissLatency::total 86233.994590                       # average WriteReq mshr miss latency ((Tick/Count))
system.cpu.dcache.power_state.pwrStateResidencyTicks::UNDEFINED   9646593500                       # Cumulative time (in ticks) in various power states (Tick)
system.cpu.dcache.tags.tagsInUse           862.401233                       # Average ticks per tags in use ((Tick/Count))
system.cpu.dcache.tags.totalRefs              3127010                       # Total number of references to valid blocks. (Count)
system.cpu.dcache.tags.sampledRefs               2637                       # Sample count of references to valid blocks. (Count)
system.cpu.dcache.tags.avgRefs            1185.821009                       # Average number of references to valid blocks. ((Count/Count))
system.cpu.dcache.tags.warmupTick              176500                       # The tick when the warmup percentage was hit. (Tick)
system.cpu.dcache.tags.occupancies::cpu.data   862.401233                       # Average occupied blocks per tick, per requestor ((Count/Tick))
system.cpu.dcache.tags.avgOccs::cpu.data     0.842189                       # Average percentage of cache occupancy ((Ratio/Tick))
system.cpu.dcache.tags.avgOccs::total        0.842189                       # Average percentage of cache occupancy ((Ratio/Tick))
system.cpu.dcache.tags.occupanciesTaskId::1024         1024                       # Occupied blocks per task id (Count)
system.cpu.dcache.tags.ageTaskId_1024::0            3                       # Occupied blocks per task id, per block age (Count)
system.cpu.dcache.tags.ageTaskId_1024::1           18                       # Occupied blocks per task id, per block age (Count)
system.cpu.dcache.tags.ageTaskId_1024::2          189                       # Occupied blocks per task id, per block age (Count)
system.cpu.dcache.tags.ageTaskId_1024::3          814                       # Occupied blocks per task id, per block age (Count)
system.cpu.dcache.tags.ratioOccsTaskId::1024            1                       # Ratio of occupied blocks and all blocks, per task id (Ratio)
system.cpu.dcache.tags.tagAccesses            6261059                       # Number of tag accesses (Count)
system.cpu.dcache.tags.dataAccesses           6261059                       # Number of data accesses (Count)
system.cpu.dcache.tags.power_state.pwrStateResidencyTicks::UNDEFINED   9646593500                       # Cumulative time (in ticks) in various power states (Tick)
system.cpu.fetch2.intInstructions             6016210                       # Number of integer instructions successfully decoded (Count)
system.cpu.fetch2.fpInstructions                    0                       # Number of floating point instructions successfully decoded (Count)
system.cpu.fetch2.vecInstructions               28955                       # Number of SIMD instructions successfully decoded (Count)
system.cpu.fetch2.loadInstructions            1426947                       # Number of memory load instructions successfully decoded (Count)
system.cpu.fetch2.storeInstructions            705929                       # Number of memory store instructions successfully decoded (Count)
system.cpu.fetch2.amoInstructions                   0                       # Number of memory atomic instructions successfully decoded (Count)
system.cpu.icache.demandHits::cpu.inst        3217550                       # number of demand (read+write) hits (Count)
system.cpu.icache.demandHits::total           3217550                       # number of demand (read+write) hits (Count)
system.cpu.icache.overallHits::cpu.inst       3217550                       # number of overall hits (Count)
system.cpu.icache.overallHits::total          3217550                       # number of overall hits (Count)
system.cpu.icache.demandMisses::cpu.inst       272527                       # number of demand (read+write) misses (Count)
system.cpu.icache.demandMisses::total          272527                       # number of demand (read+write) misses (Count)
system.cpu.icache.overallMisses::cpu.inst       272527                       # number of overall misses (Count)
system.cpu.icache.overallMisses::total         272527                       # number of overall misses (Count)
system.cpu.icache.demandMissLatency::cpu.inst   3599021000                       # number of demand (read+write) miss ticks (Tick)
system.cpu.icache.demandMissLatency::total   3599021000                       # number of demand (read+write) miss ticks (Tick)
system.cpu.icache.overallMissLatency::cpu.inst   3599021000                       # number of overall miss ticks (Tick)
system.cpu.icache.overallMissLatency::total   3599021000                       # number of overall miss ticks (Tick)
system.cpu.icache.demandAccesses::cpu.inst      3490077                       # number of demand (read+write) accesses (Count)
system.cpu.icache.demandAccesses::total       3490077                       # number of demand (read+write) accesses (Count)
system.cpu.icache.overallAccesses::cpu.inst      3490077                       # number of overall (read+write) accesses (Count)
system.cpu.icache.overallAccesses::total      3490077                       # number of overall (read+write) accesses (Count)
system.cpu.icache.demandMissRate::cpu.inst     0.078086                       # miss rate for demand accesses (Ratio)
system.cpu.icache.demandMissRate::total      0.078086                       # miss rate for demand accesses (Ratio)
system.cpu.icache.overallMissRate::cpu.inst     0.078086                       # miss rate for overall accesses (Ratio)
system.cpu.icache.overallMissRate::total     0.078086                       # miss rate for overall accesses (Ratio)
system.cpu.icache.demandAvgMissLatency::cpu.inst 13206.108019                       # average overall miss latency in ticks ((Tick/Count))
system.cpu.icache.demandAvgMissLatency::total 13206.108019                       # average overall miss latency in ticks ((Tick/Count))
system.cpu.icache.overallAvgMissLatency::cpu.inst 13206.108019                       # average overall miss latency ((Tick/Count))
system.cpu.icache.overallAvgMissLatency::total 13206.108019                       # average overall miss latency ((Tick/Count))
system.cpu.icache.blockedCycles::no_mshrs            0                       # number of cycles access was blocked (Cycle)
system.cpu.icache.blockedCycles::no_targets            0                       # number of cycles access was blocked (Cycle)
system.cpu.icache.blockedCauses::no_mshrs            0                       # number of times access was blocked (Count)
system.cpu.icache.blockedCauses::no_targets            0                       # number of times access was blocked (Count)
system.cpu.icache.avgBlocked::no_mshrs            nan                       # average number of cycles each access was blocked ((Cycle/Count))
system.cpu.icache.avgBlocked::no_targets          nan                       # average number of cycles each access was blocked ((Cycle/Count))
system.cpu.icache.writebacks::writebacks       272271                       # number of writebacks (Count)
system.cpu.icache.writebacks::total            272271                       # number of writebacks (Count)
system.cpu.icache.demandMshrMisses::cpu.inst       272527                       # number of demand (read+write) MSHR misses (Count)
system.cpu.icache.demandMshrMisses::total       272527                       # number of demand (read+write) MSHR misses (Count)
system.cpu.icache.overallMshrMisses::cpu.inst       272527                       # number of overall MSHR misses (Count)
system.cpu.icache.overallMshrMisses::total       272527                       # number of overall MSHR misses (Count)
system.cpu.icache.demandMshrMissLatency::cpu.inst   3326494000                       # number of demand (read+write) MSHR miss ticks (Tick)
system.cpu.icache.demandMshrMissLatency::total   3326494000                       # number of demand (read+write) MSHR miss ticks (Tick)
system.cpu.icache.overallMshrMissLatency::cpu.inst   3326494000                       # number of overall MSHR miss ticks (Tick)
system.cpu.icache.overallMshrMissLatency::total   3326494000                       # number of overall MSHR miss ticks (Tick)
system.cpu.icache.demandMshrMissRate::cpu.inst     0.078086                       # mshr miss ratio for demand accesses (Ratio)
system.cpu.icache.demandMshrMissRate::total     0.078086                       # mshr miss ratio for demand accesses (Ratio)
system.cpu.icache.overallMshrMissRate::cpu.inst     0.078086                       # mshr miss ratio for overall accesses (Ratio)
system.cpu.icache.overallMshrMissRate::total     0.078086                       # mshr miss ratio for overall accesses (Ratio)
system.cpu.icache.demandAvgMshrMissLatency::cpu.inst 12206.108019                       # average overall mshr miss latency ((Tick/Count))
system.cpu.icache.demandAvgMshrMissLatency::total 12206.108019                       # average overall mshr miss latency ((Tick/Count))
system.cpu.icache.overallAvgMshrMissLatency::cpu.inst 12206.108019                       # average overall mshr miss latency ((Tick/Count))
system.cpu.icache.overallAvgMshrMissLatency::total 12206.108019                       # average overall mshr miss latency ((Tick/Count))
system.cpu.icache.replacements                 272271                       # number of replacements (Count)
system.cpu.icache.ReadReq.hits::cpu.inst      3217550                       # number of ReadReq hits (Count)
system.cpu.icache.ReadReq.hits::total         3217550                       # number of ReadReq hits (Count)
system.cpu.icache.ReadReq.misses::cpu.inst       272527                       # number of ReadReq misses (Count)
system.cpu.icache.ReadReq.misses::total        272527                       # number of ReadReq misses (Count)
system.cpu.icache.ReadReq.missLatency::cpu.inst   3599021000                       # number of ReadReq miss ticks (Tick)
system.cpu.icache.ReadReq.missLatency::total   3599021000                       # number of ReadReq miss ticks (Tick)
system.cpu.icache.ReadReq.accesses::cpu.inst      3490077                       # number of ReadReq accesses(hits+misses) (Count)
system.cpu.icache.ReadReq.accesses::total      3490077                       # number of ReadReq accesses(hits+misses) (Count)
system.cpu.icache.ReadReq.missRate::cpu.inst     0.078086                       # miss rate for ReadReq accesses (Ratio)
system.cpu.icache.ReadReq.missRate::total     0.078086                       # miss rate for ReadReq accesses (Ratio)
system.cpu.icache.ReadReq.avgMissLatency::cpu.inst 13206.108019                       # average ReadReq miss latency ((Tick/Count))
system.cpu.icache.ReadReq.avgMissLatency::total 13206.108019                       # average ReadReq miss latency ((Tick/Count))
system.cpu.icache.ReadReq.mshrMisses::cpu.inst       272527                       # number of ReadReq MSHR misses (Count)
system.cpu.icache.ReadReq.mshrMisses::total       272527                       # number of ReadReq MSHR misses (Count)
system.cpu.icache.ReadReq.mshrMissLatency::cpu.inst   3326494000                       # number of ReadReq MSHR miss ticks (Tick)
system.cpu.icache.ReadReq.mshrMissLatency::total   3326494000                       # number of ReadReq MSHR miss ticks (Tick)
system.cpu.icache.ReadReq.mshrMissRate::cpu.inst     0.078086                       # mshr miss rate for ReadReq accesses (Ratio)
system.cpu.icache.ReadReq.mshrMissRate::total     0.078086                       # mshr miss rate for ReadReq accesses (Ratio)
system.cpu.icache.ReadReq.avgMshrMissLatency::cpu.inst 12206.108019                       # average ReadReq mshr miss latency ((Tick/Count))
system.cpu.icache.ReadReq.avgMshrMissLatency::total 12206.108019                       # average ReadReq mshr miss latency ((Tick/Count))
system.cpu.icache.power_state.pwrStateResidencyTicks::UNDEFINED   9646593500                       # Cumulative time (in ticks) in various power states (Tick)
system.cpu.icache.tags.tagsInUse           255.525415                       # Average ticks per tags in use ((Tick/Count))
system.cpu.icache.tags.totalRefs              3490077                       # Total number of references to valid blocks. (Count)
system.cpu.icache.tags.sampledRefs             272527                       # Sample count of references to valid blocks. (Count)
system.cpu.icache.tags.avgRefs              12.806353                       # Average number of references to valid blocks. ((Count/Count))
system.cpu.icache.tags.warmupTick               87500                       # The tick when the warmup percentage was hit. (Tick)
system.cpu.icache.tags.occupancies::cpu.inst   255.525415                       # Average occupied blocks per tick, per requestor ((Count/Tick))
system.cpu.icache.tags.avgOccs::cpu.inst     0.998146                       # Average percentage of cache occupancy ((Ratio/Tick))
system.cpu.icache.tags.avgOccs::total        0.998146                       # Average percentage of cache occupancy ((Ratio/Tick))
system.cpu.icache.tags.occupanciesTaskId::1024          256                       # Occupied blocks per task id (Count)
system.cpu.icache.tags.ageTaskId_1024::0           46                       # Occupied blocks per task id, per block age (Count)
system.cpu.icache.tags.ageTaskId_1024::1           14                       # Occupied blocks per task id, per block age (Count)
system.cpu.icache.tags.ageTaskId_1024::2           24                       # Occupied blocks per task id, per block age (Count)
system.cpu.icache.tags.ageTaskId_1024::3          172                       # Occupied blocks per task id, per block age (Count)
system.cpu.icache.tags.ratioOccsTaskId::1024            1                       # Ratio of occupied blocks and all blocks, per task id (Ratio)
system.cpu.icache.tags.tagAccesses            7252681                       # Number of tag accesses (Count)
system.cpu.icache.tags.dataAccesses           7252681                       # Number of data accesses (Count)
system.cpu.icache.tags.power_state.pwrStateResidencyTicks::UNDEFINED   9646593500                       # Cumulative time (in ticks) in various power states (Tick)
system.cpu.mmu.alignFaults                          0                       # Number of MMU faults due to alignment restrictions (Count)
system.cpu.mmu.prefetchFaults                       0                       # Number of MMU faults due to prefetch (Count)
system.cpu.mmu.domainFaults                         0                       # Number of MMU faults due to domain restrictions (Count)
system.cpu.mmu.permsFaults                          0                       # Number of MMU faults due to permissions restrictions (Count)
system.cpu.mmu.dtb.readHits                         0                       # Read hits (Count)
system.cpu.mmu.dtb.readMisses                       0                       # Read misses (Count)
system.cpu.mmu.dtb.writeHits                        0                       # Write hits (Count)
system.cpu.mmu.dtb.writeMisses                      0                       # Write misses (Count)
system.cpu.mmu.dtb.inserts                          0                       # Number of times an entry is inserted into the TLB (Count)
system.cpu.mmu.dtb.flushTlb                         0                       # Number of times complete TLB was flushed (Count)
system.cpu.mmu.dtb.flushTlbMva                      0                       # Number of times TLB was flushed by MVA (Count)
system.cpu.mmu.dtb.flushTlbMvaAsid                  0                       # Number of times TLB was flushed by MVA & ASID (Count)
system.cpu.mmu.dtb.flushTlbAsid                     0                       # Number of times TLB was flushed by ASID (Count)
system.cpu.mmu.dtb.flushedEntries                   0                       # Number of entries that have been flushed from TLB (Count)
system.cpu.mmu.dtb.readAccesses                     0                       # Read accesses (Count)
system.cpu.mmu.dtb.writeAccesses                    0                       # Write accesses (Count)
system.cpu.mmu.dtb.hits                             0                       # Total TLB (inst and data) hits (Count)
system.cpu.mmu.dtb.misses                           0                       # Total TLB (inst and data) misses (Count)
system.cpu.mmu.dtb.accesses                         0                       # Total TLB (inst and data) accesses (Count)
system.cpu.mmu.dtb_walker.walks                     0                       # Table walker walks requested (Count)
system.cpu.mmu.dtb_walker.requestOrigin_Requested::Data            0                       # Table walker requests started/completed, data/inst (Count)
system.cpu.mmu.dtb_walker.requestOrigin_Requested::Inst            0                       # Table walker requests started/completed, data/inst (Count)
system.cpu.mmu.dtb_walker.requestOrigin_Requested::total            0                       # Table walker requests started/completed, data/inst (Count)
system.cpu.mmu.dtb_walker.requestOrigin_Completed::Data            0                       # Table walker requests started/completed, data/inst (Count)
system.cpu.mmu.dtb_walker.requestOrigin_Completed::Inst            0                       # Table walker requests started/completed, data/inst (Count)
system.cpu.mmu.dtb_walker.requestOrigin_Completed::total            0                       # Table walker requests started/completed, data/inst (Count)
system.cpu.mmu.dtb_walker.requestOrigin::total            0                       # Table walker requests started/completed, data/inst (Count)
system.cpu.mmu.dtb_walker.power_state.pwrStateResidencyTicks::UNDEFINED   9646593500                       # Cumulative time (in ticks) in various power states (Tick)
system.cpu.mmu.itb.instHits                         0                       # Inst hits (Count)
system.cpu.mmu.itb.instMisses                       0                       # Inst misses (Count)
system.cpu.mmu.itb.inserts                          0                       # Number of times an entry is inserted into the TLB (Count)
system.cpu.mmu.itb.flushTlb                         0                       # Number of times complete TLB was flushed (Count)
system.cpu.mmu.itb.flushTlbMva                      0                       # Number of times TLB was flushed by MVA (Count)
system.cpu.mmu.itb.flushTlbMvaAsid                  0                       # Number of times TLB was flushed by MVA & ASID (Count)
system.cpu.mmu.itb.flushTlbAsid                     0                       # Number of times TLB was flushed by ASID (Count)
system.cpu.mmu.itb.flushedEntries                   0                       # Number of entries that have been flushed from TLB (Count)
system.cpu.mmu.itb.instAccesses                     0                       # Inst accesses (Count)
system.cpu.mmu.itb.hits                             0                       # Total TLB (inst and data) hits (Count)
system.cpu.mmu.itb.misses                           0                       # Total TLB (inst and data) misses (Count)
system.cpu.mmu.itb.accesses                         0                       # Total TLB (inst and data) accesses (Count)
system.cpu.mmu.itb_walker.walks                     0                       # Table walker walks requested (Count)
system.cpu.mmu.itb_walker.requestOrigin_Requested::Data            0                       # Table walker requests started/completed, data/inst (Count)
system.cpu.mmu.itb_walker.requestOrigin_Requested::Inst            0                       # Table walker requests started/completed, data/inst (Count)
system.cpu.mmu.itb_walker.requestOrigin_Requested::total            0                       # Table walker requests started/completed, data/inst (Count)
system.cpu.mmu.itb_walker.requestOrigin_Completed::Data            0                       # Table walker requests started/completed, data/inst (Count)
system.cpu.mmu.itb_walker.requestOrigin_Completed::Inst            0                       # Table walker requests started/completed, data/inst (Count)
system.cpu.mmu.itb_walker.requestOrigin_Completed::total            0                       # Table walker requests started/completed, data/inst (Count)
system.cpu.mmu.itb_walker.requestOrigin::total            0                       # Table walker requests started/completed, data/inst (Count)
system.cpu.mmu.itb_walker.power_state.pwrStateResidencyTicks::UNDEFINED   9646593500                       # Cumulative time (in ticks) in various power states (Tick)
system.cpu.mmu.l2_shared.instHits                   0                       # Inst hits (Count)
system.cpu.mmu.l2_shared.instMisses                 0                       # Inst misses (Count)
system.cpu.mmu.l2_shared.inserts                    0                       # Number of times an entry is inserted into the TLB (Count)
system.cpu.mmu.l2_shared.flushTlb                   0                       # Number of times complete TLB was flushed (Count)
system.cpu.mmu.l2_shared.flushTlbMva                0                       # Number of times TLB was flushed by MVA (Count)
system.cpu.mmu.l2_shared.flushTlbMvaAsid            0                       # Number of times TLB was flushed by MVA & ASID (Count)
system.cpu.mmu.l2_shared.flushTlbAsid               0                       # Number of times TLB was flushed by ASID (Count)
system.cpu.mmu.l2_shared.flushedEntries             0                       # Number of entries that have been flushed from TLB (Count)
system.cpu.mmu.l2_shared.instAccesses               0                       # Inst accesses (Count)
system.cpu.mmu.l2_shared.hits                       0                       # Total TLB (inst and data) hits (Count)
system.cpu.mmu.l2_shared.misses                     0                       # Total TLB (inst and data) misses (Count)
system.cpu.mmu.l2_shared.accesses                   0                       # Total TLB (inst and data) accesses (Count)
system.cpu.mmu.stage2_dtb.readHits                  0                       # Read hits (Count)
system.cpu.mmu.stage2_dtb.readMisses                0                       # Read misses (Count)
system.cpu.mmu.stage2_dtb.writeHits                 0                       # Write hits (Count)
system.cpu.mmu.stage2_dtb.writeMisses               0                       # Write misses (Count)
system.cpu.mmu.stage2_dtb.inserts                   0                       # Number of times an entry is inserted into the TLB (Count)
system.cpu.mmu.stage2_dtb.flushTlb                  0                       # Number of times complete TLB was flushed (Count)
system.cpu.mmu.stage2_dtb.flushTlbMva               0                       # Number of times TLB was flushed by MVA (Count)
system.cpu.mmu.stage2_dtb.flushTlbMvaAsid            0                       # Number of times TLB was flushed by MVA & ASID (Count)
system.cpu.mmu.stage2_dtb.flushTlbAsid              0                       # Number of times TLB was flushed by ASID (Count)
system.cpu.mmu.stage2_dtb.flushedEntries            0                       # Number of entries that have been flushed from TLB (Count)
system.cpu.mmu.stage2_dtb.readAccesses              0                       # Read accesses (Count)
system.cpu.mmu.stage2_dtb.writeAccesses             0                       # Write accesses (Count)
system.cpu.mmu.stage2_dtb.hits                      0                       # Total TLB (inst and data) hits (Count)
system.cpu.mmu.stage2_dtb.misses                    0                       # Total TLB (inst and data) misses (Count)
system.cpu.mmu.stage2_dtb.accesses                  0                       # Total TLB (inst and data) accesses (Count)
system.cpu.mmu.stage2_dtb_walker.walks              0                       # Table walker walks requested (Count)
system.cpu.mmu.stage2_dtb_walker.requestOrigin_Requested::Data            0                       # Table walker requests started/completed, data/inst (Count)
system.cpu.mmu.stage2_dtb_walker.requestOrigin_Requested::Inst            0                       # Table walker requests started/completed, data/inst (Count)
system.cpu.mmu.stage2_dtb_walker.requestOrigin_Requested::total            0                       # Table walker requests started/completed, data/inst (Count)
system.cpu.mmu.stage2_dtb_walker.requestOrigin_Completed::Data            0                       # Table walker requests started/completed, data/inst (Count)
system.cpu.mmu.stage2_dtb_walker.requestOrigin_Completed::Inst            0                       # Table walker requests started/completed, data/inst (Count)
system.cpu.mmu.stage2_dtb_walker.requestOrigin_Completed::total            0                       # Table walker requests started/completed, data/inst (Count)
system.cpu.mmu.stage2_dtb_walker.requestOrigin::total            0                       # Table walker requests started/completed, data/inst (Count)
system.cpu.mmu.stage2_dtb_walker.power_state.pwrStateResidencyTicks::UNDEFINED   9646593500                       # Cumulative time (in ticks) in various power states (Tick)
system.cpu.mmu.stage2_itb.instHits                  0                       # Inst hits (Count)
system.cpu.mmu.stage2_itb.instMisses                0                       # Inst misses (Count)
system.cpu.mmu.stage2_itb.inserts                   0                       # Number of times an entry is inserted into the TLB (Count)
system.cpu.mmu.stage2_itb.flushTlb                  0                       # Number of times complete TLB was flushed (Count)
system.cpu.mmu.stage2_itb.flushTlbMva               0                       # Number of times TLB was flushed by MVA (Count)
system.cpu.mmu.stage2_itb.flushTlbMvaAsid            0                       # Number of times TLB was flushed by MVA & ASID (Count)
system.cpu.mmu.stage2_itb.flushTlbAsid              0                       # Number of times TLB was flushed by ASID (Count)
system.cpu.mmu.stage2_itb.flushedEntries            0                       # Number of entries that have been flushed from TLB (Count)
system.cpu.mmu.stage2_itb.instAccesses              0                       # Inst accesses (Count)
system.cpu.mmu.stage2_itb.hits                      0                       # Total TLB (inst and data) hits (Count)
system.cpu.mmu.stage2_itb.misses                    0                       # Total TLB (inst and data) misses (Count)
system.cpu.mmu.stage2_itb.accesses                  0                       # Total TLB (inst and data) accesses (Count)
system.cpu.mmu.stage2_itb_walker.walks              0                       # Table walker walks requested (Count)
system.cpu.mmu.stage2_itb_walker.requestOrigin_Requested::Data            0                       # Table walker requests started/completed, data/inst (Count)
system.cpu.mmu.stage2_itb_walker.requestOrigin_Requested::Inst            0                       # Table walker requests started/completed, data/inst (Count)
system.cpu.mmu.stage2_itb_walker.requestOrigin_Requested::total            0                       # Table walker requests started/completed, data/inst (Count)
system.cpu.mmu.stage2_itb_walker.requestOrigin_Completed::Data            0                       # Table walker requests started/completed, data/inst (Count)
system.cpu.mmu.stage2_itb_walker.requestOrigin_Completed::Inst            0                       # Table walker requests started/completed, data/inst (Count)
system.cpu.mmu.stage2_itb_walker.requestOrigin_Completed::total            0                       # Table walker requests started/completed, data/inst (Count)
system.cpu.mmu.stage2_itb_walker.requestOrigin::total            0                       # Table walker requests started/completed, data/inst (Count)
system.cpu.mmu.stage2_itb_walker.power_state.pwrStateResidencyTicks::UNDEFINED   9646593500                       # Cumulative time (in ticks) in various power states (Tick)
system.cpu.power_state.pwrStateResidencyTicks::ON   9646593500                       # Cumulative time (in ticks) in various power states (Tick)
system.cpu.thread_0.numInsts                 10000000                       # Number of Instructions committed (Count)
system.cpu.thread_0.numOps                   11078096                       # Number of Ops committed (Count)
system.cpu.thread_0.numMemRefs                      0                       # Number of Memory References (Count)
system.cpu.workload.numSyscalls                    18                       # Number of system calls (Count)
system.cpu_clk_domain.clock                       500                       # Clock period in ticks (Tick)
system.cpu_voltage_domain.voltage                   1                       # Voltage in Volts (Volt)
system.l2.demandHits::cpu.inst                 271669                       # number of demand (read+write) hits (Count)
system.l2.demandHits::cpu.data                    195                       # number of demand (read+write) hits (Count)
system.l2.demandHits::total                    271864                       # number of demand (read+write) hits (Count)
system.l2.overallHits::cpu.inst                271669                       # number of overall hits (Count)
system.l2.overallHits::cpu.data                   195                       # number of overall hits (Count)
system.l2.overallHits::total                   271864                       # number of overall hits (Count)
system.l2.demandMisses::cpu.inst                  858                       # number of demand (read+write) misses (Count)
system.l2.demandMisses::cpu.data                 2434                       # number of demand (read+write) misses (Count)
system.l2.demandMisses::total                    3292                       # number of demand (read+write) misses (Count)
system.l2.overallMisses::cpu.inst                 858                       # number of overall misses (Count)
system.l2.overallMisses::cpu.data                2434                       # number of overall misses (Count)
system.l2.overallMisses::total                   3292                       # number of overall misses (Count)
system.l2.demandMissLatency::cpu.inst        65168500                       # number of demand (read+write) miss ticks (Tick)
system.l2.demandMissLatency::cpu.data       208884500                       # number of demand (read+write) miss ticks (Tick)
system.l2.demandMissLatency::total          274053000                       # number of demand (read+write) miss ticks (Tick)
system.l2.overallMissLatency::cpu.inst       65168500                       # number of overall miss ticks (Tick)
system.l2.overallMissLatency::cpu.data      208884500                       # number of overall miss ticks (Tick)
system.l2.overallMissLatency::total         274053000                       # number of overall miss ticks (Tick)
system.l2.demandAccesses::cpu.inst             272527                       # number of demand (read+write) accesses (Count)
system.l2.demandAccesses::cpu.data               2629                       # number of demand (read+write) accesses (Count)
system.l2.demandAccesses::total                275156                       # number of demand (read+write) accesses (Count)
system.l2.overallAccesses::cpu.inst            272527                       # number of overall (read+write) accesses (Count)
system.l2.overallAccesses::cpu.data              2629                       # number of overall (read+write) accesses (Count)
system.l2.overallAccesses::total               275156                       # number of overall (read+write) accesses (Count)
system.l2.demandMissRate::cpu.inst           0.003148                       # miss rate for demand accesses (Ratio)
system.l2.demandMissRate::cpu.data           0.925827                       # miss rate for demand accesses (Ratio)
system.l2.demandMissRate::total              0.011964                       # miss rate for demand accesses (Ratio)
system.l2.overallMissRate::cpu.inst          0.003148                       # miss rate for overall accesses (Ratio)
system.l2.overallMissRate::cpu.data          0.925827                       # miss rate for overall accesses (Ratio)
system.l2.overallMissRate::total             0.011964                       # miss rate for overall accesses (Ratio)
system.l2.demandAvgMissLatency::cpu.inst 75953.962704                       # average overall miss latency in ticks ((Tick/Count))
system.l2.demandAvgMissLatency::cpu.data 85819.433032                       # average overall miss latency in ticks ((Tick/Count))
system.l2.demandAvgMissLatency::total    83248.177400                       # average overall miss latency in ticks ((Tick/Count))
system.l2.overallAvgMissLatency::cpu.inst 75953.962704                       # average overall miss latency ((Tick/Count))
system.l2.overallAvgMissLatency::cpu.data 85819.433032                       # average overall miss latency ((Tick/Count))
system.l2.overallAvgMissLatency::total   83248.177400                       # average overall miss latency ((Tick/Count))
system.l2.blockedCycles::no_mshrs                   0                       # number of cycles access was blocked (Cycle)
system.l2.blockedCycles::no_targets                 0                       # number of cycles access was blocked (Cycle)
system.l2.blockedCauses::no_mshrs                   0                       # number of times access was blocked (Count)
system.l2.blockedCauses::no_targets                 0                       # number of times access was blocked (Count)
system.l2.avgBlocked::no_mshrs                    nan                       # average number of cycles each access was blocked ((Cycle/Count))
system.l2.avgBlocked::no_targets                  nan                       # average number of cycles each access was blocked ((Cycle/Count))
system.l2.demandMshrMisses::cpu.inst              858                       # number of demand (read+write) MSHR misses (Count)
system.l2.demandMshrMisses::cpu.data             2434                       # number of demand (read+write) MSHR misses (Count)
system.l2.demandMshrMisses::total                3292                       # number of demand (read+write) MSHR misses (Count)
system.l2.overallMshrMisses::cpu.inst             858                       # number of overall MSHR misses (Count)
system.l2.overallMshrMisses::cpu.data            2434                       # number of overall MSHR misses (Count)
system.l2.overallMshrMisses::total               3292                       # number of overall MSHR misses (Count)
system.l2.demandMshrMissLatency::cpu.inst     56588500                       # number of demand (read+write) MSHR miss ticks (Tick)
system.l2.demandMshrMissLatency::cpu.data    184544500                       # number of demand (read+write) MSHR miss ticks (Tick)
system.l2.demandMshrMissLatency::total      241133000                       # number of demand (read+write) MSHR miss ticks (Tick)
system.l2.overallMshrMissLatency::cpu.inst     56588500                       # number of overall MSHR miss ticks (Tick)
system.l2.overallMshrMissLatency::cpu.data    184544500                       # number of overall MSHR miss ticks (Tick)
system.l2.overallMshrMissLatency::total     241133000                       # number of overall MSHR miss ticks (Tick)
system.l2.demandMshrMissRate::cpu.inst       0.003148                       # mshr miss ratio for demand accesses (Ratio)
system.l2.demandMshrMissRate::cpu.data       0.925827                       # mshr miss ratio for demand accesses (Ratio)
system.l2.demandMshrMissRate::total          0.011964                       # mshr miss ratio for demand accesses (Ratio)
system.l2.overallMshrMissRate::cpu.inst      0.003148                       # mshr miss ratio for overall accesses (Ratio)
system.l2.overallMshrMissRate::cpu.data      0.925827                       # mshr miss ratio for overall accesses (Ratio)
system.l2.overallMshrMissRate::total         0.011964                       # mshr miss ratio for overall accesses (Ratio)
system.l2.demandAvgMshrMissLatency::cpu.inst 65953.962704                       # average overall mshr miss latency ((Tick/Count))
system.l2.demandAvgMshrMissLatency::cpu.data 75819.433032                       # average overall mshr miss latency ((Tick/Count))
system.l2.demandAvgMshrMissLatency::total 73248.177400                       # average overall mshr miss latency ((Tick/Count))
system.l2.overallAvgMshrMissLatency::cpu.inst 65953.962704                       # average overall mshr miss latency ((Tick/Count))
system.l2.overallAvgMshrMissLatency::cpu.data 75819.433032                       # average overall mshr miss latency ((Tick/Count))
system.l2.overallAvgMshrMissLatency::total 73248.177400                       # average overall mshr miss latency ((Tick/Count))
system.l2.replacements                              0                       # number of replacements (Count)
system.l2.InvalidateReq.misses::cpu.data            8                       # number of InvalidateReq misses (Count)
system.l2.InvalidateReq.misses::total               8                       # number of InvalidateReq misses (Count)
system.l2.InvalidateReq.accesses::cpu.data            8                       # number of InvalidateReq accesses(hits+misses) (Count)
system.l2.InvalidateReq.accesses::total             8                       # number of InvalidateReq accesses(hits+misses) (Count)
system.l2.InvalidateReq.missRate::cpu.data            1                       # miss rate for InvalidateReq accesses (Ratio)
system.l2.InvalidateReq.missRate::total             1                       # miss rate for InvalidateReq accesses (Ratio)
system.l2.InvalidateReq.mshrMisses::cpu.data            8                       # number of InvalidateReq MSHR misses (Count)
system.l2.InvalidateReq.mshrMisses::total            8                       # number of InvalidateReq MSHR misses (Count)
system.l2.InvalidateReq.mshrMissLatency::cpu.data       151000                       # number of InvalidateReq MSHR miss ticks (Tick)
system.l2.InvalidateReq.mshrMissLatency::total       151000                       # number of InvalidateReq MSHR miss ticks (Tick)
system.l2.InvalidateReq.mshrMissRate::cpu.data            1                       # mshr miss rate for InvalidateReq accesses (Ratio)
system.l2.InvalidateReq.mshrMissRate::total            1                       # mshr miss rate for InvalidateReq accesses (Ratio)
system.l2.InvalidateReq.avgMshrMissLatency::cpu.data        18875                       # average InvalidateReq mshr miss latency ((Tick/Count))
system.l2.InvalidateReq.avgMshrMissLatency::total        18875                       # average InvalidateReq mshr miss latency ((Tick/Count))
system.l2.ReadCleanReq.hits::cpu.inst          271669                       # number of ReadCleanReq hits (Count)
system.l2.ReadCleanReq.hits::total             271669                       # number of ReadCleanReq hits (Count)
system.l2.ReadCleanReq.misses::cpu.inst           858                       # number of ReadCleanReq misses (Count)
system.l2.ReadCleanReq.misses::total              858                       # number of ReadCleanReq misses (Count)
system.l2.ReadCleanReq.missLatency::cpu.inst     65168500                       # number of ReadCleanReq miss ticks (Tick)
system.l2.ReadCleanReq.missLatency::total     65168500                       # number of ReadCleanReq miss ticks (Tick)
system.l2.ReadCleanReq.accesses::cpu.inst       272527                       # number of ReadCleanReq accesses(hits+misses) (Count)
system.l2.ReadCleanReq.accesses::total         272527                       # number of ReadCleanReq accesses(hits+misses) (Count)
system.l2.ReadCleanReq.missRate::cpu.inst     0.003148                       # miss rate for ReadCleanReq accesses (Ratio)
system.l2.ReadCleanReq.missRate::total       0.003148                       # miss rate for ReadCleanReq accesses (Ratio)
system.l2.ReadCleanReq.avgMissLatency::cpu.inst 75953.962704                       # average ReadCleanReq miss latency ((Tick/Count))
system.l2.ReadCleanReq.avgMissLatency::total 75953.962704                       # average ReadCleanReq miss latency ((Tick/Count))
system.l2.ReadCleanReq.mshrMisses::cpu.inst          858                       # number of ReadCleanReq MSHR misses (Count)
system.l2.ReadCleanReq.mshrMisses::total          858                       # number of ReadCleanReq MSHR misses (Count)
system.l2.ReadCleanReq.mshrMissLatency::cpu.inst     56588500                       # number of ReadCleanReq MSHR miss ticks (Tick)
system.l2.ReadCleanReq.mshrMissLatency::total     56588500                       # number of ReadCleanReq MSHR miss ticks (Tick)
system.l2.ReadCleanReq.mshrMissRate::cpu.inst     0.003148                       # mshr miss rate for ReadCleanReq accesses (Ratio)
system.l2.ReadCleanReq.mshrMissRate::total     0.003148                       # mshr miss rate for ReadCleanReq accesses (Ratio)
system.l2.ReadCleanReq.avgMshrMissLatency::cpu.inst 65953.962704                       # average ReadCleanReq mshr miss latency ((Tick/Count))
system.l2.ReadCleanReq.avgMshrMissLatency::total 65953.962704                       # average ReadCleanReq mshr miss latency ((Tick/Count))
system.l2.ReadExReq.hits::cpu.data                 37                       # number of ReadExReq hits (Count)
system.l2.ReadExReq.hits::total                    37                       # number of ReadExReq hits (Count)
system.l2.ReadExReq.misses::cpu.data             2181                       # number of ReadExReq misses (Count)
system.l2.ReadExReq.misses::total                2181                       # number of ReadExReq misses (Count)
system.l2.ReadExReq.missLatency::cpu.data    187551500                       # number of ReadExReq miss ticks (Tick)
system.l2.ReadExReq.missLatency::total      187551500                       # number of ReadExReq miss ticks (Tick)
system.l2.ReadExReq.accesses::cpu.data           2218                       # number of ReadExReq accesses(hits+misses) (Count)
system.l2.ReadExReq.accesses::total              2218                       # number of ReadExReq accesses(hits+misses) (Count)
system.l2.ReadExReq.missRate::cpu.data       0.983318                       # miss rate for ReadExReq accesses (Ratio)
system.l2.ReadExReq.missRate::total          0.983318                       # miss rate for ReadExReq accesses (Ratio)
system.l2.ReadExReq.avgMissLatency::cpu.data 85993.351674                       # average ReadExReq miss latency ((Tick/Count))
system.l2.ReadExReq.avgMissLatency::total 85993.351674                       # average ReadExReq miss latency ((Tick/Count))
system.l2.ReadExReq.mshrMisses::cpu.data         2181                       # number of ReadExReq MSHR misses (Count)
system.l2.ReadExReq.mshrMisses::total            2181                       # number of ReadExReq MSHR misses (Count)
system.l2.ReadExReq.mshrMissLatency::cpu.data    165741500                       # number of ReadExReq MSHR miss ticks (Tick)
system.l2.ReadExReq.mshrMissLatency::total    165741500                       # number of ReadExReq MSHR miss ticks (Tick)
system.l2.ReadExReq.mshrMissRate::cpu.data     0.983318                       # mshr miss rate for ReadExReq accesses (Ratio)
system.l2.ReadExReq.mshrMissRate::total      0.983318                       # mshr miss rate for ReadExReq accesses (Ratio)
system.l2.ReadExReq.avgMshrMissLatency::cpu.data 75993.351674                       # average ReadExReq mshr miss latency ((Tick/Count))
system.l2.ReadExReq.avgMshrMissLatency::total 75993.351674                       # average ReadExReq mshr miss latency ((Tick/Count))
system.l2.ReadSharedReq.hits::cpu.data            158                       # number of ReadSharedReq hits (Count)
system.l2.ReadSharedReq.hits::total               158                       # number of ReadSharedReq hits (Count)
system.l2.ReadSharedReq.misses::cpu.data          253                       # number of ReadSharedReq misses (Count)
system.l2.ReadSharedReq.misses::total             253                       # number of ReadSharedReq misses (Count)
system.l2.ReadSharedReq.missLatency::cpu.data     21333000                       # number of ReadSharedReq miss ticks (Tick)
system.l2.ReadSharedReq.missLatency::total     21333000                       # number of ReadSharedReq miss ticks (Tick)
system.l2.ReadSharedReq.accesses::cpu.data          411                       # number of ReadSharedReq accesses(hits+misses) (Count)
system.l2.ReadSharedReq.accesses::total           411                       # number of ReadSharedReq accesses(hits+misses) (Count)
system.l2.ReadSharedReq.missRate::cpu.data     0.615572                       # miss rate for ReadSharedReq accesses (Ratio)
system.l2.ReadSharedReq.missRate::total      0.615572                       # miss rate for ReadSharedReq accesses (Ratio)
system.l2.ReadSharedReq.avgMissLatency::cpu.data 84320.158103                       # average ReadSharedReq miss latency ((Tick/Count))
system.l2.ReadSharedReq.avgMissLatency::total 84320.158103                       # average ReadSharedReq miss latency ((Tick/Count))
system.l2.ReadSharedReq.mshrMisses::cpu.data          253                       # number of ReadSharedReq MSHR misses (Count)
system.l2.ReadSharedReq.mshrMisses::total          253                       # number of ReadSharedReq MSHR misses (Count)
system.l2.ReadSharedReq.mshrMissLatency::cpu.data     18803000                       # number of ReadSharedReq MSHR miss ticks (Tick)
system.l2.ReadSharedReq.mshrMissLatency::total     18803000                       # number of ReadSharedReq MSHR miss ticks (Tick)
system.l2.ReadSharedReq.mshrMissRate::cpu.data     0.615572                       # mshr miss rate for ReadSharedReq accesses (Ratio)
system.l2.ReadSharedReq.mshrMissRate::total     0.615572                       # mshr miss rate for ReadSharedReq accesses (Ratio)
system.l2.ReadSharedReq.avgMshrMissLatency::cpu.data 74320.158103                       # average ReadSharedReq mshr miss latency ((Tick/Count))
system.l2.ReadSharedReq.avgMshrMissLatency::total 74320.158103                       # average ReadSharedReq mshr miss latency ((Tick/Count))
system.l2.WritebackClean.hits::writebacks       272270                       # number of WritebackClean hits (Count)
system.l2.WritebackClean.hits::total           272270                       # number of WritebackClean hits (Count)
system.l2.WritebackClean.accesses::writebacks       272270                       # number of WritebackClean accesses(hits+misses) (Count)
system.l2.WritebackClean.accesses::total       272270                       # number of WritebackClean accesses(hits+misses) (Count)
system.l2.WritebackDirty.hits::writebacks         1371                       # number of WritebackDirty hits (Count)
system.l2.WritebackDirty.hits::total             1371                       # number of WritebackDirty hits (Count)
system.l2.WritebackDirty.accesses::writebacks         1371                       # number of WritebackDirty accesses(hits+misses) (Count)
system.l2.WritebackDirty.accesses::total         1371                       # number of WritebackDirty accesses(hits+misses) (Count)
system.l2.power_state.pwrStateResidencyTicks::UNDEFINED   9646593500                       # Cumulative time (in ticks) in various power states (Tick)
system.l2.tags.tagsInUse                  2273.791898                       # Average ticks per tags in use ((Tick/Count))
system.l2.tags.totalRefs                       549039                       # Total number of references to valid blocks. (Count)
system.l2.tags.sampledRefs                       3300                       # Sample count of references to valid blocks. (Count)
system.l2.tags.avgRefs                     166.375455                       # Average number of references to valid blocks. ((Count/Count))
system.l2.tags.warmupTick                       77000                       # The tick when the warmup percentage was hit. (Tick)
system.l2.tags.occupancies::writebacks       4.132199                       # Average occupied blocks per tick, per requestor ((Count/Tick))
system.l2.tags.occupancies::cpu.inst       851.761454                       # Average occupied blocks per tick, per requestor ((Count/Tick))
system.l2.tags.occupancies::cpu.data      1417.898246                       # Average occupied blocks per tick, per requestor ((Count/Tick))
system.l2.tags.avgOccs::writebacks           0.000126                       # Average percentage of cache occupancy ((Ratio/Tick))
system.l2.tags.avgOccs::cpu.inst             0.025994                       # Average percentage of cache occupancy ((Ratio/Tick))
system.l2.tags.avgOccs::cpu.data             0.043271                       # Average percentage of cache occupancy ((Ratio/Tick))
system.l2.tags.avgOccs::total                0.069391                       # Average percentage of cache occupancy ((Ratio/Tick))
system.l2.tags.occupanciesTaskId::1024           3300                       # Occupied blocks per task id (Count)
system.l2.tags.ageTaskId_1024::0                    2                       # Occupied blocks per task id, per block age (Count)
system.l2.tags.ageTaskId_1024::1                   19                       # Occupied blocks per task id, per block age (Count)
system.l2.tags.ageTaskId_1024::2                  186                       # Occupied blocks per task id, per block age (Count)
system.l2.tags.ageTaskId_1024::3                 3093                       # Occupied blocks per task id, per block age (Count)
system.l2.tags.ratioOccsTaskId::1024         0.100708                       # Ratio of occupied blocks and all blocks, per task id (Ratio)
system.l2.tags.tagAccesses                    4395676                       # Number of tag accesses (Count)
system.l2.tags.dataAccesses                   4395676                       # Number of data accesses (Count)
system.l2.tags.power_state.pwrStateResidencyTicks::UNDEFINED   9646593500                       # Cumulative time (in ticks) in various power states (Tick)
system.mem_ctrls.avgPriority_cpu.inst::samples       858.00                       # Average QoS priority value for accepted requests (Count)
system.mem_ctrls.avgPriority_cpu.data::samples      2434.00                       # Average QoS priority value for accepted requests (Count)
system.mem_ctrls.priorityMinLatency      0.000000018750                       # per QoS priority minimum request to response latency (Second)
system.mem_ctrls.priorityMaxLatency      0.000000578500                       # per QoS priority maximum request to response latency (Second)
system.mem_ctrls.numReadWriteTurnArounds            0                       # Number of turnarounds from READ to WRITE (Count)
system.mem_ctrls.numWriteReadTurnArounds            0                       # Number of turnarounds from WRITE to READ (Count)
system.mem_ctrls.numStayReadState                9059                       # Number of times bus staying in READ state (Count)
system.mem_ctrls.numStayWriteState                  0                       # Number of times bus staying in WRITE state (Count)
system.mem_ctrls.readReqs                        3292                       # Number of read requests accepted (Count)
[...]
system.mem_ctrls.dram.perBankWrBursts::10            0                       # Per bank write bursts (Count)
system.mem_ctrls.dram.perBankWrBursts::11            0                       # Per bank write bursts (Count)
system.mem_ctrls.dram.perBankWrBursts::12            0                       # Per bank write bursts (Count)
system.mem_ctrls.dram.perBankWrBursts::13            0                       # Per bank write bursts (Count)
system.mem_ctrls.dram.perBankWrBursts::14            0                       # Per bank write bursts (Count)
system.mem_ctrls.dram.perBankWrBursts::15            0                       # Per bank write bursts (Count)
system.mem_ctrls.dram.totQLat                44150250                       # Total ticks spent queuing (Tick)
system.mem_ctrls.dram.totBusLat              16460000                       # Total ticks spent in databus transfers (Tick)
system.mem_ctrls.dram.totMemAccLat          105875250                       # Total ticks spent from burst creation until serviced by the DRAM (Tick)
system.mem_ctrls.dram.avgQLat                13411.38                       # Average queueing delay per DRAM burst ((Tick/Count))
system.mem_ctrls.dram.avgBusLat               5000.00                       # Average bus latency per DRAM burst ((Tick/Count))
system.mem_ctrls.dram.avgMemAccLat           32161.38                       # Average memory access latency per DRAM burst ((Tick/Count))
system.mem_ctrls.dram.readRowHits                 954                       # Number of row buffer hits during reads (Count)
system.mem_ctrls.dram.writeRowHits                  0                       # Number of row buffer hits during writes (Count)
system.mem_ctrls.dram.readRowHitRate            28.98                       # Row buffer hit rate for reads (Ratio)
system.mem_ctrls.dram.writeRowHitRate             nan                       # Row buffer hit rate for writes (Ratio)
system.mem_ctrls.dram.bytesPerActivate::samples         2337                       # Bytes accessed per row activation (Byte)
system.mem_ctrls.dram.bytesPerActivate::mean    90.098417                       # Bytes accessed per row activation (Byte)
system.mem_ctrls.dram.bytesPerActivate::gmean    72.786447                       # Bytes accessed per row activation (Byte)
system.mem_ctrls.dram.bytesPerActivate::stdev   119.060271                       # Bytes accessed per row activation (Byte)
system.mem_ctrls.dram.bytesPerActivate::0-127         2128     91.06%     91.06% # Bytes accessed per row activation (Byte)
system.mem_ctrls.dram.bytesPerActivate::128-255          106      4.54%     95.59% # Bytes accessed per row activation (Byte)
system.mem_ctrls.dram.bytesPerActivate::256-383           27      1.16%     96.75% # Bytes accessed per row activation (Byte)
system.mem_ctrls.dram.bytesPerActivate::384-511           26      1.11%     97.86% # Bytes accessed per row activation (Byte)
system.mem_ctrls.dram.bytesPerActivate::512-639           12      0.51%     98.37% # Bytes accessed per row activation (Byte)
system.mem_ctrls.dram.bytesPerActivate::640-767            9      0.39%     98.76% # Bytes accessed per row activation (Byte)
system.mem_ctrls.dram.bytesPerActivate::768-895            6      0.26%     99.02% # Bytes accessed per row activation (Byte)
system.mem_ctrls.dram.bytesPerActivate::896-1023            6      0.26%     99.27% # Bytes accessed per row activation (Byte)
system.mem_ctrls.dram.bytesPerActivate::1024-1151           17      0.73%    100.00% # Bytes accessed per row activation (Byte)
system.mem_ctrls.dram.bytesPerActivate::total         2337                       # Bytes accessed per row activation (Byte)
system.mem_ctrls.dram.bytesRead                210688                       # Total bytes read (Byte)
system.mem_ctrls.dram.bytesWritten                  0                       # Total bytes written (Byte)
system.mem_ctrls.dram.avgRdBW               21.840663                       # Average DRAM read bandwidth in MiBytes/s ((Byte/Second))
system.mem_ctrls.dram.avgWrBW                       0                       # Average DRAM write bandwidth in MiBytes/s ((Byte/Second))
system.mem_ctrls.dram.peakBW                 12800.00                       # Theoretical peak bandwidth in MiByte/s ((Byte/Second))
system.mem_ctrls.dram.busUtil                    0.17                       # Data bus utilization in percentage (Ratio)
system.mem_ctrls.dram.busUtilRead                0.17                       # Data bus utilization in percentage for reads (Ratio)
system.mem_ctrls.dram.busUtilWrite               0.00                       # Data bus utilization in percentage for writes (Ratio)
system.mem_ctrls.dram.pageHitRate               28.98                       # Row buffer hit rate, read and write combined (Ratio)
system.mem_ctrls.dram.power_state.pwrStateResidencyTicks::UNDEFINED   9646593500                       # Cumulative time (in ticks) in various power states (Tick)
system.mem_ctrls.dram.rank0.actEnergy        10295880                       # Energy for activate commands per rank (pJ) (Joule)
system.mem_ctrls.dram.rank0.preEnergy         5468595                       # Energy for precharge commands per rank (pJ) (Joule)
system.mem_ctrls.dram.rank0.readEnergy       15115380                       # Energy for read commands per rank (pJ) (Joule)
system.mem_ctrls.dram.rank0.writeEnergy             0                       # Energy for write commands per rank (pJ) (Joule)
system.mem_ctrls.dram.rank0.refreshEnergy 760924320.000000                       # Energy for refresh commands per rank (pJ) (Joule)
system.mem_ctrls.dram.rank0.actBackEnergy   1778907870                       # Energy for active background per rank (pJ) (Joule)
system.mem_ctrls.dram.rank0.preBackEnergy   2206264320                       # Energy for precharge background per rank (pJ) (Joule)
system.mem_ctrls.dram.rank0.actPowerDownEnergy            0                       # Energy for active power-down per rank (pJ) (Joule)
system.mem_ctrls.dram.rank0.prePowerDownEnergy            0                       # Energy for precharge power-down per rank (pJ) (Joule)
system.mem_ctrls.dram.rank0.selfRefreshEnergy            0                       # Energy for self refresh per rank (pJ) (Joule)
system.mem_ctrls.dram.rank0.totalEnergy    4776976365                       # Total energy per rank (pJ) (Joule)
system.mem_ctrls.dram.rank0.averagePower   495.198265                       # Core power per rank (mW) (Watt)
system.mem_ctrls.dram.rank0.totalIdleTime            0                       # Total Idle time Per DRAM Rank (Tick)
system.mem_ctrls.dram.rank0.pwrStateTime::IDLE   5715162750                       # Time in different power states (Tick)
system.mem_ctrls.dram.rank0.pwrStateTime::REF    321880000                       # Time in different power states (Tick)
system.mem_ctrls.dram.rank0.pwrStateTime::SREF            0                       # Time in different power states (Tick)
system.mem_ctrls.dram.rank0.pwrStateTime::PRE_PDN            0                       # Time in different power states (Tick)
system.mem_ctrls.dram.rank0.pwrStateTime::ACT   3609550750                       # Time in different power states (Tick)
system.mem_ctrls.dram.rank0.pwrStateTime::ACT_PDN            0                       # Time in different power states (Tick)
system.mem_ctrls.dram.rank1.actEnergy         6397440                       # Energy for activate commands per rank (pJ) (Joule)
system.mem_ctrls.dram.rank1.preEnergy         3400320                       # Energy for precharge commands per rank (pJ) (Joule)
system.mem_ctrls.dram.rank1.readEnergy        8389500                       # Energy for read commands per rank (pJ) (Joule)
system.mem_ctrls.dram.rank1.writeEnergy             0                       # Energy for write commands per rank (pJ) (Joule)
system.mem_ctrls.dram.rank1.refreshEnergy 760924320.000000                       # Energy for refresh commands per rank (pJ) (Joule)
system.mem_ctrls.dram.rank1.actBackEnergy   1320469980                       # Energy for active background per rank (pJ) (Joule)
system.mem_ctrls.dram.rank1.preBackEnergy   2592317280                       # Energy for precharge background per rank (pJ) (Joule)
system.mem_ctrls.dram.rank1.actPowerDownEnergy            0                       # Energy for active power-down per rank (pJ) (Joule)
system.mem_ctrls.dram.rank1.prePowerDownEnergy            0                       # Energy for precharge power-down per rank (pJ) (Joule)
system.mem_ctrls.dram.rank1.selfRefreshEnergy            0                       # Energy for self refresh per rank (pJ) (Joule)
system.mem_ctrls.dram.rank1.totalEnergy    4691898840                       # Total energy per rank (pJ) (Joule)
system.mem_ctrls.dram.rank1.averagePower   486.378828                       # Core power per rank (mW) (Watt)
system.mem_ctrls.dram.rank1.totalIdleTime            0                       # Total Idle time Per DRAM Rank (Tick)
system.mem_ctrls.dram.rank1.pwrStateTime::IDLE   6724952000                       # Time in different power states (Tick)
system.mem_ctrls.dram.rank1.pwrStateTime::REF    321880000                       # Time in different power states (Tick)
system.mem_ctrls.dram.rank1.pwrStateTime::SREF            0                       # Time in different power states (Tick)
system.mem_ctrls.dram.rank1.pwrStateTime::PRE_PDN            0                       # Time in different power states (Tick)
system.mem_ctrls.dram.rank1.pwrStateTime::ACT   2599761500                       # Time in different power states (Tick)
system.mem_ctrls.dram.rank1.pwrStateTime::ACT_PDN            0                       # Time in different power states (Tick)
system.mem_ctrls.power_state.pwrStateResidencyTicks::UNDEFINED   9646593500                       # Cumulative time (in ticks) in various power states (Tick)
system.membus.transDist::ReadResp                1111                       # Transaction distribution (Count)
system.membus.transDist::ReadExReq               2181                       # Transaction distribution (Count)
system.membus.transDist::ReadExResp              2181                       # Transaction distribution (Count)
system.membus.transDist::ReadSharedReq           1111                       # Transaction distribution (Count)
system.membus.transDist::InvalidateReq              8                       # Transaction distribution (Count)
system.membus.pktCount_system.l2.mem_side_port::system.mem_ctrls.port         6592                       # Packet count per connected requestor and responder (Count)
system.membus.pktCount::total                    6592                       # Packet count per connected requestor and responder (Count)
system.membus.pktSize_system.l2.mem_side_port::system.mem_ctrls.port       210688                       # Cumulative packet size per connected requestor and responder (Byte)
system.membus.pktSize::total                   210688                       # Cumulative packet size per connected requestor and responder (Byte)
system.membus.snoops                                0                       # Total snoops (Count)
system.membus.snoopTraffic                          0                       # Total snoop traffic (Byte)
system.membus.snoopFanout::samples               3300                       # Request fanout histogram (Count)
system.membus.snoopFanout::mean                     0                       # Request fanout histogram (Count)
system.membus.snoopFanout::stdev                    0                       # Request fanout histogram (Count)
system.membus.snoopFanout::underflows               0      0.00%      0.00% # Request fanout histogram (Count)
system.membus.snoopFanout::0                     3300    100.00%    100.00% # Request fanout histogram (Count)
system.membus.snoopFanout::1                        0      0.00%    100.00% # Request fanout histogram (Count)
system.membus.snoopFanout::overflows                0      0.00%    100.00% # Request fanout histogram (Count)
system.membus.snoopFanout::min_value                0                       # Request fanout histogram (Count)
system.membus.snoopFanout::max_value                0                       # Request fanout histogram (Count)
system.membus.snoopFanout::total                 3300                       # Request fanout histogram (Count)
system.membus.power_state.pwrStateResidencyTicks::UNDEFINED   9646593500                       # Cumulative time (in ticks) in various power states (Tick)
system.membus.reqLayer0.occupancy             3765500                       # Layer occupancy (ticks) (Tick)
system.membus.reqLayer0.utilization               0.0                       # Layer utilization (Ratio)
system.membus.respLayer1.occupancy           17895500                       # Layer occupancy (ticks) (Tick)
system.membus.respLayer1.utilization              0.0                       # Layer utilization (Ratio)
system.membus.snoop_filter.totRequests           3300                       # Total number of requests made to the snoop filter. (Count)
system.membus.snoop_filter.hitSingleRequests            0                       # Number of requests hitting in the snoop filter with a single holder of the requested data. (Count)
system.membus.snoop_filter.hitMultiRequests            0                       # Number of requests hitting in the snoop filter with multiple (>1) holders of the requested data. (Count)
system.membus.snoop_filter.totSnoops                0                       # Total number of snoops made to the snoop filter. (Count)
system.membus.snoop_filter.hitSingleSnoops            0                       # Number of snoops hitting in the snoop filter with a single holder of the requested data. (Count)
system.membus.snoop_filter.hitMultiSnoops            0                       # Number of snoops hitting in the snoop filter with multiple (>1) holders of the requested data. (Count)
system.tol2bus.transDist::ReadResp             272938                       # Transaction distribution (Count)
system.tol2bus.transDist::WritebackDirty         1371                       # Transaction distribution (Count)
system.tol2bus.transDist::WritebackClean       272271                       # Transaction distribution (Count)
system.tol2bus.transDist::CleanEvict              242                       # Transaction distribution (Count)
system.tol2bus.transDist::ReadExReq              2218                       # Transaction distribution (Count)
system.tol2bus.transDist::ReadExResp             2218                       # Transaction distribution (Count)
system.tol2bus.transDist::ReadCleanReq         272527                       # Transaction distribution (Count)
system.tol2bus.transDist::ReadSharedReq           411                       # Transaction distribution (Count)
system.tol2bus.transDist::InvalidateReq             8                       # Transaction distribution (Count)
system.tol2bus.transDist::InvalidateResp            8                       # Transaction distribution (Count)
system.tol2bus.pktCount_system.cpu.icache.mem_side_port::system.l2.cpu_side_port       817325                       # Packet count per connected requestor and responder (Count)
system.tol2bus.pktCount_system.cpu.dcache.mem_side_port::system.l2.cpu_side_port         6887                       # Packet count per connected requestor and responder (Count)
system.tol2bus.pktCount::total                 824212                       # Packet count per connected requestor and responder (Count)
system.tol2bus.pktSize_system.cpu.icache.mem_side_port::system.l2.cpu_side_port     34867072                       # Cumulative packet size per connected requestor and responder (Byte)
system.tol2bus.pktSize_system.cpu.dcache.mem_side_port::system.l2.cpu_side_port       256000                       # Cumulative packet size per connected requestor and responder (Byte)
system.tol2bus.pktSize::total                35123072                       # Cumulative packet size per connected requestor and responder (Byte)
system.tol2bus.snoops                               0                       # Total snoops (Count)
system.tol2bus.snoopTraffic                         0                       # Total snoop traffic (Byte)
system.tol2bus.snoopFanout::samples            275164                       # Request fanout histogram (Count)
system.tol2bus.snoopFanout::mean             0.000004                       # Request fanout histogram (Count)
system.tol2bus.snoopFanout::stdev            0.001906                       # Request fanout histogram (Count)
system.tol2bus.snoopFanout::underflows              0      0.00%      0.00% # Request fanout histogram (Count)
system.tol2bus.snoopFanout::0                  275163    100.00%    100.00% # Request fanout histogram (Count)
system.tol2bus.snoopFanout::1                       1      0.00%    100.00% # Request fanout histogram (Count)
system.tol2bus.snoopFanout::2                       0      0.00%    100.00% # Request fanout histogram (Count)
system.tol2bus.snoopFanout::overflows               0      0.00%    100.00% # Request fanout histogram (Count)
system.tol2bus.snoopFanout::min_value               0                       # Request fanout histogram (Count)
system.tol2bus.snoopFanout::max_value               1                       # Request fanout histogram (Count)
system.tol2bus.snoopFanout::total              275164                       # Request fanout histogram (Count)
system.tol2bus.power_state.pwrStateResidencyTicks::UNDEFINED   9646593500                       # Cumulative time (in ticks) in various power states (Tick)
system.tol2bus.reqLayer0.occupancy          548166000                       # Layer occupancy (ticks) (Tick)
system.tol2bus.reqLayer0.utilization              0.1                       # Layer utilization (Ratio)
system.tol2bus.respLayer0.occupancy         408790500                       # Layer occupancy (ticks) (Tick)
system.tol2bus.respLayer0.utilization             0.0                       # Layer utilization (Ratio)
system.tol2bus.respLayer1.occupancy           3947500                       # Layer occupancy (ticks) (Tick)
system.tol2bus.respLayer1.utilization             0.0                       # Layer utilization (Ratio)
system.tol2bus.snoop_filter.totRequests        549048                       # Total number of requests made to the snoop filter. (Count)
system.tol2bus.snoop_filter.hitSingleRequests       273884                       # Number of requests hitting in the snoop filter with a single holder of the requested data. (Count)
system.tol2bus.snoop_filter.hitMultiRequests            1                       # Number of requests hitting in the snoop filter with multiple (>1) holders of the requested data. (Count)
system.tol2bus.snoop_filter.totSnoops               0                       # Total number of snoops made to the snoop filter. (Count)
system.tol2bus.snoop_filter.hitSingleSnoops            0                       # Number of snoops hitting in the snoop filter with a single holder of the requested data. (Count)
system.tol2bus.snoop_filter.hitMultiSnoops            0                       # Number of snoops hitting in the snoop filter with multiple (>1) holders of the requested data. (Count)
system.voltage_domain.voltage                       1                       # Voltage in Volts (Volt)
system.workload.inst.arm                            0                       # number of arm instructions executed (Count)
system.workload.inst.quiesce                        0                       # number of quiesce instructions executed (Count)
system.cpu.idleCycles                         4614491                       # Total number of cycles that the object has spent stopped (Unspecified)
system.cpu.tickCycles                        14678696                       # Number of cycles that the object actually ticked (Unspecified)

---------- End Simulation Statistics   ----------
