
---------- Begin Simulation Statistics ----------
simSeconds                                   0.037943                       # Number of seconds simulated (Second)
simTicks                                  37943103000                       # Number of ticks simulated (Tick)
finalTick                                 37943103000                       # Number of ticks from beginning of simulation (restored from checkpoints and never reset) (Tick)
simFreq                                  1000000000000                       # The number of ticks per simulated second ((Tick/Second))
hostSeconds                                    100.28                       # Real time elapsed on the host (Second)
hostTickRate                                378384702                       # The number of ticks simulated per host second (ticks/s) ((Tick/Second))
hostMemory                                    8732460                       # Number of bytes of host memory used (Byte)
simInsts                                     10000000                       # Number of instructions simulated (Count)
simOps                                       10007012                       # Number of ops (including micro ops) simulated (Count)
hostInstRate                                    99724                       # Simulator instruction rate (inst/s) ((Count/Second))
hostOpRate                                      99794                       # Simulator op (including micro ops) rate (op/s) ((Count/Second))
system.clk_domain.clock                          1000                       # Clock period in ticks (Tick)
system.cpu.numCycles                         75886206                       # Number of cpu cycles simulated (Cycle)
system.cpu.numWorkItemsStarted                      0                       # Number of work items this cpu started (Count)
system.cpu.numWorkItemsCompleted                    0                       # Number of work items this cpu completed (Count)
system.cpu.numInsts                          10000000                       # Number of instructions committed (Count)
system.cpu.numOps                            10007012                       # Number of ops (including micro ops) committed (Count)
system.cpu.numDiscardedOps                     134098                       # Number of ops (including micro ops) which were discarded before commit (Count)
system.cpu.numFetchSuspends                         0                       # Number of times Execute suspended instruction fetching (Count)
system.cpu.cpi                               7.588621                       # CPI: cycles per instruction ((Cycle/Count))
system.cpu.ipc                               0.131776                       # IPC: instructions per cycle ((Count/Cycle))
system.cpu.committedInstType_0::No_OpClass            5      0.00%      0.00% # Class of committed instruction (Count)
system.cpu.committedInstType_0::IntAlu        7348287     73.43%     73.43% # Class of committed instruction (Count)
system.cpu.committedInstType_0::IntMult           634      0.01%     73.44% # Class of committed instruction (Count)
system.cpu.committedInstType_0::IntDiv              2      0.00%     73.44% # Class of committed instruction (Count)
system.cpu.committedInstType_0::FloatAdd            0      0.00%     73.44% # Class of committed instruction (Count)
system.cpu.committedInstType_0::FloatCmp            0      0.00%     73.44% # Class of committed instruction (Count)
system.cpu.committedInstType_0::FloatCvt            0      0.00%     73.44% # Class of committed instruction (Count)
system.cpu.committedInstType_0::FloatMult            0      0.00%     73.44% # Class of committed instruction (Count)
system.cpu.committedInstType_0::FloatMultAcc            0      0.00%     73.44% # Class of committed instruction (Count)
system.cpu.committedInstType_0::FloatDiv            0      0.00%     73.44% # Class of committed instruction (Count)
system.cpu.committedInstType_0::FloatMisc            1      0.00%     73.44% # Class of committed instruction (Count)
system.cpu.committedInstType_0::FloatSqrt            0      0.00%     73.44% # Class of committed instruction (Count)
system.cpu.committedInstType_0::SimdAdd            20      0.00%     73.44% # Class of committed instruction (Count)
system.cpu.committedInstType_0::SimdAddAcc            0      0.00%     73.44% # Class of committed instruction (Count)
system.cpu.committedInstType_0::SimdAlu            19      0.00%     73.44% # Class of committed instruction (Count)
system.cpu.committedInstType_0::SimdCmp            20      0.00%     73.44% # Class of committed instruction (Count)
system.cpu.committedInstType_0::SimdCvt             0      0.00%     73.44% # Class of committed instruction (Count)
system.cpu.committedInstType_0::SimdMisc           25      0.00%     73.44% # Class of committed instruction (Count)
system.cpu.committedInstType_0::SimdMult            0      0.00%     73.44% # Class of committed instruction (Count)
system.cpu.committedInstType_0::SimdMultAcc            0      0.00%     73.44% # Class of committed instruction (Count)
system.cpu.committedInstType_0::SimdShift            0      0.00%     73.44% # Class of committed instruction (Count)
system.cpu.committedInstType_0::SimdShiftAcc            0      0.00%     73.44% # Class of committed instruction (Count)
system.cpu.committedInstType_0::SimdDiv             0      0.00%     73.44% # Class of committed instruction (Count)
system.cpu.committedInstType_0::SimdSqrt            0      0.00%     73.44% # Class of committed instruction (Count)
system.cpu.committedInstType_0::SimdFloatAdd            0      0.00%     73.44% # Class of committed instruction (Count)
system.cpu.committedInstType_0::SimdFloatAlu            0      0.00%     73.44% # Class of committed instruction (Count)
system.cpu.committedInstType_0::SimdFloatCmp            0      0.00%     73.44% # Class of committed instruction (Count)
system.cpu.committedInstType_0::SimdFloatCvt            0      0.00%     73.44% # Class of committed instruction (Count)
system.cpu.committedInstType_0::SimdFloatDiv            0      0.00%     73.44% # Class of committed instruction (Count)
system.cpu.committedInstType_0::SimdFloatMisc            0      0.00%     73.44% # Class of committed instruction (Count)
system.cpu.committedInstType_0::SimdFloatMult            0      0.00%     73.44% # Class of committed instruction (Count)
system.cpu.committedInstType_0::SimdFloatMultAcc            0      0.00%     73.44% # Class of committed instruction (Count)
system.cpu.committedInstType_0::SimdFloatSqrt            0      0.00%     73.44% # Class of committed instruction (Count)
system.cpu.committedInstType_0::SimdReduceAdd            0      0.00%     73.44% # Class of committed instruction (Count)
system.cpu.committedInstType_0::SimdReduceAlu            0      0.00%     73.44% # Class of committed instruction (Count)
system.cpu.committedInstType_0::SimdReduceCmp            0      0.00%     73.44% # Class of committed instruction (Count)
system.cpu.committedInstType_0::SimdFloatReduceAdd            0      0.00%     73.44% # Class of committed instruction (Count)
system.cpu.committedInstType_0::SimdFloatReduceCmp            0      0.00%     73.44% # Class of committed instruction (Count)
system.cpu.committedInstType_0::SimdAes             0      0.00%     73.44% # Class of committed instruction (Count)
system.cpu.committedInstType_0::SimdAesMix            0      0.00%     73.44% # Class of committed instruction (Count)
system.cpu.committedInstType_0::SimdSha1Hash            0      0.00%     73.44% # Class of committed instruction (Count)
system.cpu.committedInstType_0::SimdSha1Hash2            0      0.00%     73.44% # Class of committed instruction (Count)
system.cpu.committedInstType_0::SimdSha256Hash            0      0.00%     73.44% # Class of committed instruction (Count)
system.cpu.committedInstType_0::SimdSha256Hash2            0      0.00%     73.44% # Class of committed instruction (Count)
system.cpu.committedInstType_0::SimdShaSigma2            0      0.00%     73.44% # Class of committed instruction (Count)
system.cpu.committedInstType_0::SimdShaSigma3            0      0.00%     73.44% # Class of committed instruction (Count)
system.cpu.committedInstType_0::SimdPredAlu            0      0.00%     73.44% # Class of committed instruction (Count)
system.cpu.committedInstType_0::MemRead        161706      1.62%     75.05% # Class of committed instruction (Count)
system.cpu.committedInstType_0::MemWrite      2496293     24.95%    100.00% # Class of committed instruction (Count)
system.cpu.committedInstType_0::FloatMemRead            0      0.00%    100.00% # Class of committed instruction (Count)
system.cpu.committedInstType_0::FloatMemWrite            0      0.00%    100.00% # Class of committed instruction (Count)
system.cpu.committedInstType_0::IprAccess            0      0.00%    100.00% # Class of committed instruction (Count)
system.cpu.committedInstType_0::InstPrefetch            0      0.00%    100.00% # Class of committed instruction (Count)
system.cpu.committedInstType_0::total        10007012                       # Class of committed instruction (Count)
system.cpu.branchPred.lookups                 2596240                       # Number of BP lookups (Count)
system.cpu.branchPred.condPredicted           2590786                       # Number of conditional branches predicted (Count)
system.cpu.branchPred.condIncorrect               844                       # Number of conditional branches incorrect (Count)
system.cpu.branchPred.BTBLookups              2590204                       # Number of BTB lookups (Count)
system.cpu.branchPred.BTBHits                 2589384                       # Number of BTB hits (Count)
system.cpu.branchPred.BTBHitRatio            0.999683                       # BTB Hit Ratio (Ratio)
system.cpu.branchPred.RASUsed                    2295                       # Number of times the RAS was used to get a target. (Count)
system.cpu.branchPred.RASIncorrect                  2                       # Number of incorrect RAS predictions. (Count)
system.cpu.branchPred.indirectLookups             124                       # Number of indirect predictor lookups. (Count)
system.cpu.branchPred.indirectHits                  2                       # Number of indirect target hits. (Count)
system.cpu.branchPred.indirectMisses              122                       # Number of indirect misses. (Count)
system.cpu.branchPred.indirectMispredicted           50                       # Number of mispredicted indirect branches. (Count)
system.cpu.dcache.demandHits::cpu.data         281623                       # number of demand (read+write) hits (Count)
system.cpu.dcache.demandHits::total            281623                       # number of demand (read+write) hits (Count)
system.cpu.dcache.overallHits::cpu.data        281628                       # number of overall hits (Count)
system.cpu.dcache.overallHits::total           281628                       # number of overall hits (Count)
system.cpu.dcache.demandMisses::cpu.data      2340325                       # number of demand (read+write) misses (Count)
system.cpu.dcache.demandMisses::total         2340325                       # number of demand (read+write) misses (Count)
system.cpu.dcache.overallMisses::cpu.data      2340328                       # number of overall misses (Count)
system.cpu.dcache.overallMisses::total        2340328                       # number of overall misses (Count)
system.cpu.dcache.demandMissLatency::cpu.data  74354553000                       # number of demand (read+write) miss ticks (Tick)
system.cpu.dcache.demandMissLatency::total  74354553000                       # number of demand (read+write) miss ticks (Tick)
system.cpu.dcache.overallMissLatency::cpu.data  74354553000                       # number of overall miss ticks (Tick)
system.cpu.dcache.overallMissLatency::total  74354553000                       # number of overall miss ticks (Tick)
system.cpu.dcache.demandAccesses::cpu.data      2621948                       # number of demand (read+write) accesses (Count)
system.cpu.dcache.demandAccesses::total       2621948                       # number of demand (read+write) accesses (Count)
system.cpu.dcache.overallAccesses::cpu.data      2621956                       # number of overall (read+write) accesses (Count)
system.cpu.dcache.overallAccesses::total      2621956                       # number of overall (read+write) accesses (Count)
system.cpu.dcache.demandMissRate::cpu.data     0.892590                       # miss rate for demand accesses (Ratio)
system.cpu.dcache.demandMissRate::total      0.892590                       # miss rate for demand accesses (Ratio)
system.cpu.dcache.overallMissRate::cpu.data     0.892589                       # miss rate for overall accesses (Ratio)
system.cpu.dcache.overallMissRate::total     0.892589                       # miss rate for overall accesses (Ratio)
system.cpu.dcache.demandAvgMissLatency::cpu.data 31771.037356                       # average overall miss latency in ticks ((Tick/Count))
system.cpu.dcache.demandAvgMissLatency::total 31771.037356                       # average overall miss latency in ticks ((Tick/Count))
system.cpu.dcache.overallAvgMissLatency::cpu.data 31770.996630                       # average overall miss latency ((Tick/Count))
system.cpu.dcache.overallAvgMissLatency::total 31770.996630                       # average overall miss latency ((Tick/Count))
system.cpu.dcache.blockedCycles::no_mshrs            0                       # number of cycles access was blocked (Cycle)
system.cpu.dcache.blockedCycles::no_targets            0                       # number of cycles access was blocked (Cycle)
system.cpu.dcache.blockedCauses::no_mshrs            0                       # number of times access was blocked (Count)
system.cpu.dcache.blockedCauses::no_targets            0                       # number of times access was blocked (Count)
system.cpu.dcache.avgBlocked::no_mshrs            nan                       # average number of cycles each access was blocked ((Cycle/Count))
system.cpu.dcache.avgBlocked::no_targets          nan                       # average number of cycles each access was blocked ((Cycle/Count))
system.cpu.dcache.writebacks::writebacks      2338541                       # number of writebacks (Count)
system.cpu.dcache.writebacks::total           2338541                       # number of writebacks (Count)
system.cpu.dcache.demandMshrHits::cpu.data          652                       # number of demand (read+write) MSHR hits (Count)
system.cpu.dcache.demandMshrHits::total           652                       # number of demand (read+write) MSHR hits (Count)
system.cpu.dcache.overallMshrHits::cpu.data          652                       # number of overall MSHR hits (Count)
system.cpu.dcache.overallMshrHits::total          652                       # number of overall MSHR hits (Count)
system.cpu.dcache.demandMshrMisses::cpu.data      2339673                       # number of demand (read+write) MSHR misses (Count)
system.cpu.dcache.demandMshrMisses::total      2339673                       # number of demand (read+write) MSHR misses (Count)
system.cpu.dcache.overallMshrMisses::cpu.data      2339676                       # number of overall MSHR misses (Count)
system.cpu.dcache.overallMshrMisses::total      2339676                       # number of overall MSHR misses (Count)
system.cpu.dcache.demandMshrMissLatency::cpu.data  71975865500                       # number of demand (read+write) MSHR miss ticks (Tick)
system.cpu.dcache.demandMshrMissLatency::total  71975865500                       # number of demand (read+write) MSHR miss ticks (Tick)
system.cpu.dcache.overallMshrMissLatency::cpu.data  71976128000                       # number of overall MSHR miss ticks (Tick)
system.cpu.dcache.overallMshrMissLatency::total  71976128000                       # number of overall MSHR miss ticks (Tick)
system.cpu.dcache.demandMshrMissRate::cpu.data     0.892341                       # mshr miss ratio for demand accesses (Ratio)
system.cpu.dcache.demandMshrMissRate::total     0.892341                       # mshr miss ratio for demand accesses (Ratio)
system.cpu.dcache.overallMshrMissRate::cpu.data     0.892340                       # mshr miss ratio for overall accesses (Ratio)
system.cpu.dcache.overallMshrMissRate::total     0.892340                       # mshr miss ratio for overall accesses (Ratio)
system.cpu.dcache.demandAvgMshrMissLatency::cpu.data 30763.215843                       # average overall mshr miss latency ((Tick/Count))
system.cpu.dcache.demandAvgMshrMissLatency::total 30763.215843                       # average overall mshr miss latency ((Tick/Count))
system.cpu.dcache.overallAvgMshrMissLatency::cpu.data 30763.288592                       # average overall mshr miss latency ((Tick/Count))
system.cpu.dcache.overallAvgMshrMissLatency::total 30763.288592                       # average overall mshr miss latency ((Tick/Count))
system.cpu.dcache.replacements                2338651                       # number of replacements (Count)
system.cpu.dcache.LoadLockedReq.hits::cpu.data           19                       # number of LoadLockedReq hits (Count)
system.cpu.dcache.LoadLockedReq.hits::total           19                       # number of LoadLockedReq hits (Count)
system.cpu.dcache.LoadLockedReq.misses::cpu.data            1                       # number of LoadLockedReq misses (Count)
system.cpu.dcache.LoadLockedReq.misses::total            1                       # number of LoadLockedReq misses (Count)
system.cpu.dcache.LoadLockedReq.missLatency::cpu.data       359500                       # number of LoadLockedReq miss ticks (Tick)
system.cpu.dcache.LoadLockedReq.missLatency::total       359500                       # number of LoadLockedReq miss ticks (Tick)
system.cpu.dcache.LoadLockedReq.accesses::cpu.data           20                       # number of LoadLockedReq accesses(hits+misses) (Count)
system.cpu.dcache.LoadLockedReq.accesses::total           20                       # number of LoadLockedReq accesses(hits+misses) (Count)
system.cpu.dcache.LoadLockedReq.missRate::cpu.data     0.050000                       # miss rate for LoadLockedReq accesses (Ratio)
system.cpu.dcache.LoadLockedReq.missRate::total     0.050000                       # miss rate for LoadLockedReq accesses (Ratio)
system.cpu.dcache.LoadLockedReq.avgMissLatency::cpu.data       359500                       # average LoadLockedReq miss latency ((Tick/Count))
system.cpu.dcache.LoadLockedReq.avgMissLatency::total       359500                       # average LoadLockedReq miss latency ((Tick/Count))
system.cpu.dcache.LoadLockedReq.mshrMisses::cpu.data            1                       # number of LoadLockedReq MSHR misses (Count)
system.cpu.dcache.LoadLockedReq.mshrMisses::total            1                       # number of LoadLockedReq MSHR misses (Count)
system.cpu.dcache.LoadLockedReq.mshrMissLatency::cpu.data       358500                       # number of LoadLockedReq MSHR miss ticks (Tick)
system.cpu.dcache.LoadLockedReq.mshrMissLatency::total       358500                       # number of LoadLockedReq MSHR miss ticks (Tick)
system.cpu.dcache.LoadLockedReq.mshrMissRate::cpu.data     0.050000                       # mshr miss rate for LoadLockedReq accesses (Ratio)
system.cpu.dcache.LoadLockedReq.mshrMissRate::total     0.050000                       # mshr miss rate for LoadLockedReq accesses (Ratio)
system.cpu.dcache.LoadLockedReq.avgMshrMissLatency::cpu.data       358500                       # average LoadLockedReq mshr miss latency ((Tick/Count))
system.cpu.dcache.LoadLockedReq.avgMshrMissLatency::total       358500                       # average LoadLockedReq mshr miss latency ((Tick/Count))
system.cpu.dcache.ReadReq.hits::cpu.data       162053                       # number of ReadReq hits (Count)
system.cpu.dcache.ReadReq.hits::total          162053                       # number of ReadReq hits (Count)
system.cpu.dcache.ReadReq.misses::cpu.data          144                       # number of ReadReq misses (Count)
system.cpu.dcache.ReadReq.misses::total           144                       # number of ReadReq misses (Count)
system.cpu.dcache.ReadReq.missLatency::cpu.data     10728500                       # number of ReadReq miss ticks (Tick)
system.cpu.dcache.ReadReq.missLatency::total     10728500                       # number of ReadReq miss ticks (Tick)
system.cpu.dcache.ReadReq.accesses::cpu.data       162197                       # number of ReadReq accesses(hits+misses) (Count)
system.cpu.dcache.ReadReq.accesses::total       162197                       # number of ReadReq accesses(hits+misses) (Count)
system.cpu.dcache.ReadReq.missRate::cpu.data     0.000888                       # miss rate for ReadReq accesses (Ratio)
system.cpu.dcache.ReadReq.missRate::total     0.000888                       # miss rate for ReadReq accesses (Ratio)
system.cpu.dcache.ReadReq.avgMissLatency::cpu.data 74503.472222                       # average ReadReq miss latency ((Tick/Count))
system.cpu.dcache.ReadReq.avgMissLatency::total 74503.472222                       # average ReadReq miss latency ((Tick/Count))
system.cpu.dcache.ReadReq.mshrHits::cpu.data            7                       # number of ReadReq MSHR hits (Count)
system.cpu.dcache.ReadReq.mshrHits::total            7                       # number of ReadReq MSHR hits (Count)
system.cpu.dcache.ReadReq.mshrMisses::cpu.data          137                       # number of ReadReq MSHR misses (Count)
system.cpu.dcache.ReadReq.mshrMisses::total          137                       # number of ReadReq MSHR misses (Count)
system.cpu.dcache.ReadReq.mshrMissLatency::cpu.data     10037500                       # number of ReadReq MSHR miss ticks (Tick)
system.cpu.dcache.ReadReq.mshrMissLatency::total     10037500                       # number of ReadReq MSHR miss ticks (Tick)
system.cpu.dcache.ReadReq.mshrMissRate::cpu.data     0.000845                       # mshr miss rate for ReadReq accesses (Ratio)
system.cpu.dcache.ReadReq.mshrMissRate::total     0.000845                       # mshr miss rate for ReadReq accesses (Ratio)
system.cpu.dcache.ReadReq.avgMshrMissLatency::cpu.data 73266.423358                       # average ReadReq mshr miss latency ((Tick/Count))
system.cpu.dcache.ReadReq.avgMshrMissLatency::total 73266.423358                       # average ReadReq mshr miss latency ((Tick/Count))
system.cpu.dcache.SoftPFReq.hits::cpu.data            5                       # number of SoftPFReq hits (Count)
system.cpu.dcache.SoftPFReq.hits::total             5                       # number of SoftPFReq hits (Count)
system.cpu.dcache.SoftPFReq.misses::cpu.data            3                       # number of SoftPFReq misses (Count)
system.cpu.dcache.SoftPFReq.misses::total            3                       # number of SoftPFReq misses (Count)
system.cpu.dcache.SoftPFReq.accesses::cpu.data            8                       # number of SoftPFReq accesses(hits+misses) (Count)
system.cpu.dcache.SoftPFReq.accesses::total            8                       # number of SoftPFReq accesses(hits+misses) (Count)
system.cpu.dcache.SoftPFReq.missRate::cpu.data     0.375000                       # miss rate for SoftPFReq accesses (Ratio)
system.cpu.dcache.SoftPFReq.missRate::total     0.375000                       # miss rate for SoftPFReq accesses (Ratio)
system.cpu.dcache.SoftPFReq.mshrMisses::cpu.data            3                       # number of SoftPFReq MSHR misses (Count)
system.cpu.dcache.SoftPFReq.mshrMisses::total            3                       # number of SoftPFReq MSHR misses (Count)
system.cpu.dcache.SoftPFReq.mshrMissLatency::cpu.data       262500                       # number of SoftPFReq MSHR miss ticks (Tick)
system.cpu.dcache.SoftPFReq.mshrMissLatency::total       262500                       # number of SoftPFReq MSHR miss ticks (Tick)
system.cpu.dcache.SoftPFReq.mshrMissRate::cpu.data     0.375000                       # mshr miss rate for SoftPFReq accesses (Ratio)
system.cpu.dcache.SoftPFReq.mshrMissRate::total     0.375000                       # mshr miss rate for SoftPFReq accesses (Ratio)
system.cpu.dcache.SoftPFReq.avgMshrMissLatency::cpu.data        87500                       # average SoftPFReq mshr miss latency ((Tick/Count))
system.cpu.dcache.SoftPFReq.avgMshrMissLatency::total        87500                       # average SoftPFReq mshr miss latency ((Tick/Count))
system.cpu.dcache.StoreCondReq.hits::cpu.data           20                       # number of StoreCondReq hits (Count)
system.cpu.dcache.StoreCondReq.hits::total           20                       # number of StoreCondReq hits (Count)
system.cpu.dcache.StoreCondReq.accesses::cpu.data           20                       # number of StoreCondReq accesses(hits+misses) (Count)
system.cpu.dcache.StoreCondReq.accesses::total           20                       # number of StoreCondReq accesses(hits+misses) (Count)
system.cpu.dcache.WriteLineReq.misses::cpu.data      2336787                       # number of WriteLineReq misses (Count)
system.cpu.dcache.WriteLineReq.misses::total      2336787                       # number of WriteLineReq misses (Count)
system.cpu.dcache.WriteLineReq.missLatency::cpu.data  74090321500                       # number of WriteLineReq miss ticks (Tick)
system.cpu.dcache.WriteLineReq.missLatency::total  74090321500                       # number of WriteLineReq miss ticks (Tick)
system.cpu.dcache.WriteLineReq.accesses::cpu.data      2336787                       # number of WriteLineReq accesses(hits+misses) (Count)
system.cpu.dcache.WriteLineReq.accesses::total      2336787                       # number of WriteLineReq accesses(hits+misses) (Count)
system.cpu.dcache.WriteLineReq.missRate::cpu.data            1                       # miss rate for WriteLineReq accesses (Ratio)
system.cpu.dcache.WriteLineReq.missRate::total            1                       # miss rate for WriteLineReq accesses (Ratio)
system.cpu.dcache.WriteLineReq.avgMissLatency::cpu.data 31706.065422                       # average WriteLineReq miss latency ((Tick/Count))
system.cpu.dcache.WriteLineReq.avgMissLatency::total 31706.065422                       # average WriteLineReq miss latency ((Tick/Count))
system.cpu.dcache.WriteLineReq.mshrMisses::cpu.data      2336787                       # number of WriteLineReq MSHR misses (Count)
system.cpu.dcache.WriteLineReq.mshrMisses::total      2336787                       # number of WriteLineReq MSHR misses (Count)
system.cpu.dcache.WriteLineReq.mshrMissLatency::cpu.data  71753536500                       # number of WriteLineReq MSHR miss ticks (Tick)
system.cpu.dcache.WriteLineReq.mshrMissLatency::total  71753536500                       # number of WriteLineReq MSHR miss ticks (Tick)
system.cpu.dcache.WriteLineReq.mshrMissRate::cpu.data            1                       # mshr miss rate for WriteLineReq accesses (Ratio)
system.cpu.dcache.WriteLineReq.mshrMissRate::total            1                       # mshr miss rate for WriteLineReq accesses (Ratio)
system.cpu.dcache.WriteLineReq.avgMshrMissLatency::cpu.data 30706.066278                       # average WriteLineReq mshr miss latency ((Tick/Count))
system.cpu.dcache.WriteLineReq.avgMshrMissLatency::total 30706.066278                       # average WriteLineReq mshr miss latency ((Tick/Count))
system.cpu.dcache.WriteReq.hits::cpu.data       119570                       # number of WriteReq hits (Count)
system.cpu.dcache.WriteReq.hits::total         119570                       # number of WriteReq hits (Count)
system.cpu.dcache.WriteReq.misses::cpu.data         3394                       # number of WriteReq misses (Count)
system.cpu.dcache.WriteReq.misses::total         3394                       # number of WriteReq misses (Count)
system.cpu.dcache.WriteReq.missLatency::cpu.data    253503000                       # number of WriteReq miss ticks (Tick)
system.cpu.dcache.WriteReq.missLatency::total    253503000                       # number of WriteReq miss ticks (Tick)
system.cpu.dcache.WriteReq.accesses::cpu.data       122964                       # number of WriteReq accesses(hits+misses) (Count)
system.cpu.dcache.WriteReq.accesses::total       122964                       # number of WriteReq accesses(hits+misses) (Count)
system.cpu.dcache.WriteReq.missRate::cpu.data     0.027602                       # miss rate for WriteReq accesses (Ratio)
system.cpu.dcache.WriteReq.missRate::total     0.027602                       # miss rate for WriteReq accesses (Ratio)
system.cpu.dcache.WriteReq.avgMissLatency::cpu.data 74691.514437                       # average WriteReq miss latency ((Tick/Count))
system.cpu.dcache.WriteReq.avgMissLatency::total 74691.514437                       # average WriteReq miss latency ((Tick/Count))
system.cpu.dcache.WriteReq.mshrHits::cpu.data          645                       # number of WriteReq MSHR hits (Count)
system.cpu.dcache.WriteReq.mshrHits::total          645                       # number of WriteReq MSHR hits (Count)
system.cpu.dcache.WriteReq.mshrMisses::cpu.data         2749                       # number of WriteReq MSHR misses (Count)
system.cpu.dcache.WriteReq.mshrMisses::total         2749                       # number of WriteReq MSHR misses (Count)
system.cpu.dcache.WriteReq.mshrMissLatency::cpu.data    212291500                       # number of WriteReq MSHR miss ticks (Tick)
system.cpu.dcache.WriteReq.mshrMissLatency::total    212291500                       # number of WriteReq MSHR miss ticks (Tick)
system.cpu.dcache.WriteReq.mshrMissRate::cpu.data     0.022356                       # mshr miss rate for WriteReq accesses (Ratio)
system.cpu.dcache.WriteReq.mshrMissRate::total     0.022356                       # mshr miss rate for WriteReq accesses (Ratio)
system.cpu.dcache.WriteReq.avgMshrMissLatency::cpu.data 77224.990906                       # average WriteReq mshr miss latency ((Tick/Count))
system.cpu.dcache.WriteReq.avgMshrMissLatency::total 77224.990906                       # average WriteReq mshr miss latency ((Tick/Count))
system.cpu.dcache.power_state.pwrStateResidencyTicks::UNDEFINED  37943103000                       # Cumulative time (in ticks) in various power states (Tick)
system.cpu.dcache.tags.tagsInUse          1021.673601                       # Average ticks per tags in use ((Tick/Count))
system.cpu.dcache.tags.totalRefs              2621342                       # Total number of references to valid blocks. (Count)
system.cpu.dcache.tags.sampledRefs            2339675                       # Sample count of references to valid blocks. (Count)
system.cpu.dcache.tags.avgRefs               1.120387                       # Average number of references to valid blocks. ((Count/Count))
system.cpu.dcache.tags.warmupTick              269500                       # The tick when the warmup percentage was hit. (Tick)
system.cpu.dcache.tags.occupancies::cpu.data  1021.673601                       # Average occupied blocks per tick, per requestor ((Count/Tick))
system.cpu.dcache.tags.avgOccs::cpu.data     0.997728                       # Average percentage of cache occupancy ((Ratio/Tick))
system.cpu.dcache.tags.avgOccs::total        0.997728                       # Average percentage of cache occupancy ((Ratio/Tick))
system.cpu.dcache.tags.occupanciesTaskId::1024         1024                       # Occupied blocks per task id (Count)
system.cpu.dcache.tags.ageTaskId_1024::0          626                       # Occupied blocks per task id, per block age (Count)
system.cpu.dcache.tags.ageTaskId_1024::1          398                       # Occupied blocks per task id, per block age (Count)
system.cpu.dcache.tags.ratioOccsTaskId::1024            1                       # Ratio of occupied blocks and all blocks, per task id (Ratio)
system.cpu.dcache.tags.tagAccesses            7583667                       # Number of tag accesses (Count)
system.cpu.dcache.tags.dataAccesses           7583667                       # Number of data accesses (Count)
system.cpu.dcache.tags.power_state.pwrStateResidencyTicks::UNDEFINED  37943103000                       # Cumulative time (in ticks) in various power states (Tick)
system.cpu.fetch2.intInstructions             5447978                       # Number of integer instructions successfully decoded (Count)
system.cpu.fetch2.fpInstructions                    0                       # Number of floating point instructions successfully decoded (Count)
system.cpu.fetch2.vecInstructions                 109                       # Number of SIMD instructions successfully decoded (Count)
system.cpu.fetch2.loadInstructions             161738                       # Number of memory load instructions successfully decoded (Count)
system.cpu.fetch2.storeInstructions           2704453                       # Number of memory store instructions successfully decoded (Count)
system.cpu.fetch2.amoInstructions                   0                       # Number of memory atomic instructions successfully decoded (Count)
system.cpu.icache.demandHits::cpu.inst        6892394                       # number of demand (read+write) hits (Count)
system.cpu.icache.demandHits::total           6892394                       # number of demand (read+write) hits (Count)
system.cpu.icache.overallHits::cpu.inst       6892394                       # number of overall hits (Count)
system.cpu.icache.overallHits::total          6892394                       # number of overall hits (Count)
system.cpu.icache.demandMisses::cpu.inst          527                       # number of demand (read+write) misses (Count)
system.cpu.icache.demandMisses::total             527                       # number of demand (read+write) misses (Count)
system.cpu.icache.overallMisses::cpu.inst          527                       # number of overall misses (Count)
system.cpu.icache.overallMisses::total            527                       # number of overall misses (Count)
system.cpu.icache.demandMissLatency::cpu.inst     38395500                       # number of demand (read+write) miss ticks (Tick)
system.cpu.icache.demandMissLatency::total     38395500                       # number of demand (read+write) miss ticks (Tick)
system.cpu.icache.overallMissLatency::cpu.inst     38395500                       # number of overall miss ticks (Tick)
system.cpu.icache.overallMissLatency::total     38395500                       # number of overall miss ticks (Tick)
system.cpu.icache.demandAccesses::cpu.inst      6892921                       # number of demand (read+write) accesses (Count)
system.cpu.icache.demandAccesses::total       6892921                       # number of demand (read+write) accesses (Count)
system.cpu.icache.overallAccesses::cpu.inst      6892921                       # number of overall (read+write) accesses (Count)
system.cpu.icache.overallAccesses::total      6892921                       # number of overall (read+write) accesses (Count)
system.cpu.icache.demandMissRate::cpu.inst     0.000076                       # miss rate for demand accesses (Ratio)
system.cpu.icache.demandMissRate::total      0.000076                       # miss rate for demand accesses (Ratio)
system.cpu.icache.overallMissRate::cpu.inst     0.000076                       # miss rate for overall accesses (Ratio)
system.cpu.icache.overallMissRate::total     0.000076                       # miss rate for overall accesses (Ratio)
system.cpu.icache.demandAvgMissLatency::cpu.inst 72856.736243                       # average overall miss latency in ticks ((Tick/Count))
system.cpu.icache.demandAvgMissLatency::total 72856.736243                       # average overall miss latency in ticks ((Tick/Count))
system.cpu.icache.overallAvgMissLatency::cpu.inst 72856.736243                       # average overall miss latency ((Tick/Count))
system.cpu.icache.overallAvgMissLatency::total 72856.736243                       # average overall miss latency ((Tick/Count))
system.cpu.icache.blockedCycles::no_mshrs            0                       # number of cycles access was blocked (Cycle)
system.cpu.icache.blockedCycles::no_targets            0                       # number of cycles access was blocked (Cycle)
system.cpu.icache.blockedCauses::no_mshrs            0                       # number of times access was blocked (Count)
system.cpu.icache.blockedCauses::no_targets            0                       # number of times access was blocked (Count)
system.cpu.icache.avgBlocked::no_mshrs            nan                       # average number of cycles each access was blocked ((Cycle/Count))
system.cpu.icache.avgBlocked::no_targets          nan                       # average number of cycles each access was blocked ((Cycle/Count))
system.cpu.icache.writebacks::writebacks          272                       # number of writebacks (Count)
system.cpu.icache.writebacks::total               272                       # number of writebacks (Count)
system.cpu.icache.demandMshrMisses::cpu.inst          527                       # number of demand (read+write) MSHR misses (Count)
system.cpu.icache.demandMshrMisses::total          527                       # number of demand (read+write) MSHR misses (Count)
system.cpu.icache.overallMshrMisses::cpu.inst          527                       # number of overall MSHR misses (Count)
system.cpu.icache.overallMshrMisses::total          527                       # number of overall MSHR misses (Count)
system.cpu.icache.demandMshrMissLatency::cpu.inst     37868500                       # number of demand (read+write) MSHR miss ticks (Tick)
system.cpu.icache.demandMshrMissLatency::total     37868500                       # number of demand (read+write) MSHR miss ticks (Tick)
system.cpu.icache.overallMshrMissLatency::cpu.inst     37868500                       # number of overall MSHR miss ticks (Tick)
system.cpu.icache.overallMshrMissLatency::total     37868500                       # number of overall MSHR miss ticks (Tick)
system.cpu.icache.demandMshrMissRate::cpu.inst     0.000076                       # mshr miss ratio for demand accesses (Ratio)
system.cpu.icache.demandMshrMissRate::total     0.000076                       # mshr miss ratio for demand accesses (Ratio)
system.cpu.icache.overallMshrMissRate::cpu.inst     0.000076                       # mshr miss ratio for overall accesses (Ratio)
system.cpu.icache.overallMshrMissRate::total     0.000076                       # mshr miss ratio for overall accesses (Ratio)
system.cpu.icache.demandAvgMshrMissLatency::cpu.inst 71856.736243                       # average overall mshr miss latency ((Tick/Count))
system.cpu.icache.demandAvgMshrMissLatency::total 71856.736243                       # average overall mshr miss latency ((Tick/Count))
system.cpu.icache.overallAvgMshrMissLatency::cpu.inst 71856.736243                       # average overall mshr miss latency ((Tick/Count))
system.cpu.icache.overallAvgMshrMissLatency::total 71856.736243                       # average overall mshr miss latency ((Tick/Count))
system.cpu.icache.replacements                    272                       # number of replacements (Count)
system.cpu.icache.ReadReq.hits::cpu.inst      6892394                       # number of ReadReq hits (Count)
system.cpu.icache.ReadReq.hits::total         6892394                       # number of ReadReq hits (Count)
system.cpu.icache.ReadReq.misses::cpu.inst          527                       # number of ReadReq misses (Count)
system.cpu.icache.ReadReq.misses::total           527                       # number of ReadReq misses (Count)
system.cpu.icache.ReadReq.missLatency::cpu.inst     38395500                       # number of ReadReq miss ticks (Tick)
system.cpu.icache.ReadReq.missLatency::total     38395500                       # number of ReadReq miss ticks (Tick)
system.cpu.icache.ReadReq.accesses::cpu.inst      6892921                       # number of ReadReq accesses(hits+misses) (Count)
system.cpu.icache.ReadReq.accesses::total      6892921                       # number of ReadReq accesses(hits+misses) (Count)
system.cpu.icache.ReadReq.missRate::cpu.inst     0.000076                       # miss rate for ReadReq accesses (Ratio)
system.cpu.icache.ReadReq.missRate::total     0.000076                       # miss rate for ReadReq accesses (Ratio)
system.cpu.icache.ReadReq.avgMissLatency::cpu.inst 72856.736243                       # average ReadReq miss latency ((Tick/Count))
system.cpu.icache.ReadReq.avgMissLatency::total 72856.736243                       # average ReadReq miss latency ((Tick/Count))
system.cpu.icache.ReadReq.mshrMisses::cpu.inst          527                       # number of ReadReq MSHR misses (Count)
system.cpu.icache.ReadReq.mshrMisses::total          527                       # number of ReadReq MSHR misses (Count)
system.cpu.icache.ReadReq.mshrMissLatency::cpu.inst     37868500                       # number of ReadReq MSHR miss ticks (Tick)
system.cpu.icache.ReadReq.mshrMissLatency::total     37868500                       # number of ReadReq MSHR miss ticks (Tick)
system.cpu.icache.ReadReq.mshrMissRate::cpu.inst     0.000076                       # mshr miss rate for ReadReq accesses (Ratio)
system.cpu.icache.ReadReq.mshrMissRate::total     0.000076                       # mshr miss rate for ReadReq accesses (Ratio)
system.cpu.icache.ReadReq.avgMshrMissLatency::cpu.inst 71856.736243                       # average ReadReq mshr miss latency ((Tick/Count))
system.cpu.icache.ReadReq.avgMshrMissLatency::total 71856.736243                       # average ReadReq mshr miss latency ((Tick/Count))
system.cpu.icache.power_state.pwrStateResidencyTicks::UNDEFINED  37943103000                       # Cumulative time (in ticks) in various power states (Tick)
system.cpu.icache.tags.tagsInUse           254.876345                       # Average ticks per tags in use ((Tick/Count))
system.cpu.icache.tags.totalRefs              6892921                       # Total number of references to valid blocks. (Count)
system.cpu.icache.tags.sampledRefs                527                       # Sample count of references to valid blocks. (Count)
system.cpu.icache.tags.avgRefs           13079.546490                       # Average number of references to valid blocks. ((Count/Count))
system.cpu.icache.tags.warmupTick               87500                       # The tick when the warmup percentage was hit. (Tick)
system.cpu.icache.tags.occupancies::cpu.inst   254.876345                       # Average occupied blocks per tick, per requestor ((Count/Tick))
system.cpu.icache.tags.avgOccs::cpu.inst     0.995611                       # Average percentage of cache occupancy ((Ratio/Tick))
system.cpu.icache.tags.avgOccs::total        0.995611                       # Average percentage of cache occupancy ((Ratio/Tick))
system.cpu.icache.tags.occupanciesTaskId::1024          255                       # Occupied blocks per task id (Count)
system.cpu.icache.tags.ageTaskId_1024::3            1                       # Occupied blocks per task id, per block age (Count)
system.cpu.icache.tags.ageTaskId_1024::4          254                       # Occupied blocks per task id, per block age (Count)
system.cpu.icache.tags.ratioOccsTaskId::1024     0.996094                       # Ratio of occupied blocks and all blocks, per task id (Ratio)
system.cpu.icache.tags.tagAccesses           13786369                       # Number of tag accesses (Count)
system.cpu.icache.tags.dataAccesses          13786369                       # Number of data accesses (Count)
system.cpu.icache.tags.power_state.pwrStateResidencyTicks::UNDEFINED  37943103000                       # Cumulative time (in ticks) in various power states (Tick)
system.cpu.mmu.alignFaults                          0                       # Number of MMU faults due to alignment restrictions (Count)
system.cpu.mmu.prefetchFaults                       0                       # Number of MMU faults due to prefetch (Count)
system.cpu.mmu.domainFaults                         0                       # Number of MMU faults due to domain restrictions (Count)
system.cpu.mmu.permsFaults                          0                       # Number of MMU faults due to permissions restrictions (Count)
system.cpu.mmu.dtb.readHits                         0                       # Read hits (Count)
system.cpu.mmu.dtb.readMisses                       0                       # Read misses (Count)
system.cpu.mmu.dtb.writeHits                        0                       # Write hits (Count)
system.cpu.mmu.dtb.writeMisses                      0                       # Write misses (Count)
system.cpu.mmu.dtb.inserts                          0                       # Number of times an entry is inserted into the TLB (Count)
system.cpu.mmu.dtb.flushTlb                         0                       # Number of times complete TLB was flushed (Count)
system.cpu.mmu.dtb.flushTlbMva                      0                       # Number of times TLB was flushed by MVA (Count)
system.cpu.mmu.dtb.flushTlbMvaAsid                  0                       # Number of times TLB was flushed by MVA & ASID (Count)
system.cpu.mmu.dtb.flushTlbAsid                     0                       # Number of times TLB was flushed by ASID (Count)
system.cpu.mmu.dtb.flushedEntries                   0                       # Number of entries that have been flushed from TLB (Count)
system.cpu.mmu.dtb.readAccesses                     0                       # Read accesses (Count)
system.cpu.mmu.dtb.writeAccesses                    0                       # Write accesses (Count)
system.cpu.mmu.dtb.hits                             0                       # Total TLB (inst and data) hits (Count)
system.cpu.mmu.dtb.misses                           0                       # Total TLB (inst and data) misses (Count)
system.cpu.mmu.dtb.accesses                         0                       # Total TLB (inst and data) accesses (Count)
system.cpu.mmu.dtb_walker.walks                     0                       # Table walker walks requested (Count)
system.cpu.mmu.dtb_walker.requestOrigin_Requested::Data            0                       # Table walker requests started/completed, data/inst (Count)
system.cpu.mmu.dtb_walker.requestOrigin_Requested::Inst            0                       # Table walker requests started/completed, data/inst (Count)
system.cpu.mmu.dtb_walker.requestOrigin_Requested::total            0                       # Table walker requests started/completed, data/inst (Count)
system.cpu.mmu.dtb_walker.requestOrigin_Completed::Data            0                       # Table walker requests started/completed, data/inst (Count)
system.cpu.mmu.dtb_walker.requestOrigin_Completed::Inst            0                       # Table walker requests started/completed, data/inst (Count)
system.cpu.mmu.dtb_walker.requestOrigin_Completed::total            0                       # Table walker requests started/completed, data/inst (Count)
system.cpu.mmu.dtb_walker.requestOrigin::total            0                       # Table walker requests started/completed, data/inst (Count)
system.cpu.mmu.dtb_walker.power_state.pwrStateResidencyTicks::UNDEFINED  37943103000                       # Cumulative time (in ticks) in various power states (Tick)
system.cpu.mmu.itb.instHits                         0                       # Inst hits (Count)
system.cpu.mmu.itb.instMisses                       0                       # Inst misses (Count)
system.cpu.mmu.itb.inserts                          0                       # Number of times an entry is inserted into the TLB (Count)
system.cpu.mmu.itb.flushTlb                         0                       # Number of times complete TLB was flushed (Count)
system.cpu.mmu.itb.flushTlbMva                      0                       # Number of times TLB was flushed by MVA (Count)
system.cpu.mmu.itb.flushTlbMvaAsid                  0                       # Number of times TLB was flushed by MVA & ASID (Count)
system.cpu.mmu.itb.flushTlbAsid                     0                       # Number of times TLB was flushed by ASID (Count)
system.cpu.mmu.itb.flushedEntries                   0                       # Number of entries that have been flushed from TLB (Count)
system.cpu.mmu.itb.instAccesses                     0                       # Inst accesses (Count)
system.cpu.mmu.itb.hits                             0                       # Total TLB (inst and data) hits (Count)
system.cpu.mmu.itb.misses                           0                       # Total TLB (inst and data) misses (Count)
system.cpu.mmu.itb.accesses                         0                       # Total TLB (inst and data) accesses (Count)
system.cpu.mmu.itb_walker.walks                     0                       # Table walker walks requested (Count)
system.cpu.mmu.itb_walker.requestOrigin_Requested::Data            0                       # Table walker requests started/completed, data/inst (Count)
system.cpu.mmu.itb_walker.requestOrigin_Requested::Inst            0                       # Table walker requests started/completed, data/inst (Count)
system.cpu.mmu.itb_walker.requestOrigin_Requested::total            0                       # Table walker requests started/completed, data/inst (Count)
system.cpu.mmu.itb_walker.requestOrigin_Completed::Data            0                       # Table walker requests started/completed, data/inst (Count)
system.cpu.mmu.itb_walker.requestOrigin_Completed::Inst            0                       # Table walker requests started/completed, data/inst (Count)
system.cpu.mmu.itb_walker.requestOrigin_Completed::total            0                       # Table walker requests started/completed, data/inst (Count)
system.cpu.mmu.itb_walker.requestOrigin::total            0                       # Table walker requests started/completed, data/inst (Count)
system.cpu.mmu.itb_walker.power_state.pwrStateResidencyTicks::UNDEFINED  37943103000                       # Cumulative time (in ticks) in various power states (Tick)
system.cpu.mmu.l2_shared.instHits                   0                       # Inst hits (Count)
system.cpu.mmu.l2_shared.instMisses                 0                       # Inst misses (Count)
system.cpu.mmu.l2_shared.inserts                    0                       # Number of times an entry is inserted into the TLB (Count)
system.cpu.mmu.l2_shared.flushTlb                   0                       # Number of times complete TLB was flushed (Count)
system.cpu.mmu.l2_shared.flushTlbMva                0                       # Number of times TLB was flushed by MVA (Count)
system.cpu.mmu.l2_shared.flushTlbMvaAsid            0                       # Number of times TLB was flushed by MVA & ASID (Count)
system.cpu.mmu.l2_shared.flushTlbAsid               0                       # Number of times TLB was flushed by ASID (Count)
system.cpu.mmu.l2_shared.flushedEntries             0                       # Number of entries that have been flushed from TLB (Count)
system.cpu.mmu.l2_shared.instAccesses               0                       # Inst accesses (Count)
system.cpu.mmu.l2_shared.hits                       0                       # Total TLB (inst and data) hits (Count)
system.cpu.mmu.l2_shared.misses                     0                       # Total TLB (inst and data) misses (Count)
system.cpu.mmu.l2_shared.accesses                   0                       # Total TLB (inst and data) accesses (Count)
system.cpu.mmu.stage2_dtb.readHits                  0                       # Read hits (Count)
system.cpu.mmu.stage2_dtb.readMisses                0                       # Read misses (Count)
system.cpu.mmu.stage2_dtb.writeHits                 0                       # Write hits (Count)
system.cpu.mmu.stage2_dtb.writeMisses               0                       # Write misses (Count)
system.cpu.mmu.stage2_dtb.inserts                   0                       # Number of times an entry is inserted into the TLB (Count)
system.cpu.mmu.stage2_dtb.flushTlb                  0                       # Number of times complete TLB was flushed (Count)
system.cpu.mmu.stage2_dtb.flushTlbMva               0                       # Number of times TLB was flushed by MVA (Count)
system.cpu.mmu.stage2_dtb.flushTlbMvaAsid            0                       # Number of times TLB was flushed by MVA & ASID (Count)
system.cpu.mmu.stage2_dtb.flushTlbAsid              0                       # Number of times TLB was flushed by ASID (Count)
system.cpu.mmu.stage2_dtb.flushedEntries            0                       # Number of entries that have been flushed from TLB (Count)
system.cpu.mmu.stage2_dtb.readAccesses              0                       # Read accesses (Count)
system.cpu.mmu.stage2_dtb.writeAccesses             0                       # Write accesses (Count)
system.cpu.mmu.stage2_dtb.hits                      0                       # Total TLB (inst and data) hits (Count)
system.cpu.mmu.stage2_dtb.misses                    0                       # Total TLB (inst and data) misses (Count)
system.cpu.mmu.stage2_dtb.accesses                  0                       # Total TLB (inst and data) accesses (Count)
system.cpu.mmu.stage2_dtb_walker.walks              0                       # Table walker walks requested (Count)
system.cpu.mmu.stage2_dtb_walker.requestOrigin_Requested::Data            0                       # Table walker requests started/completed, data/inst (Count)
system.cpu.mmu.stage2_dtb_walker.requestOrigin_Requested::Inst            0                       # Table walker requests started/completed, data/inst (Count)
system.cpu.mmu.stage2_dtb_walker.requestOrigin_Requested::total            0                       # Table walker requests started/completed, data/inst (Count)
system.cpu.mmu.stage2_dtb_walker.requestOrigin_Completed::Data            0                       # Table walker requests started/completed, data/inst (Count)
system.cpu.mmu.stage2_dtb_walker.requestOrigin_Completed::Inst            0                       # Table walker requests started/completed, data/inst (Count)
system.cpu.mmu.stage2_dtb_walker.requestOrigin_Completed::total            0                       # Table walker requests started/completed, data/inst (Count)
system.cpu.mmu.stage2_dtb_walker.requestOrigin::total            0                       # Table walker requests started/completed, data/inst (Count)
system.cpu.mmu.stage2_dtb_walker.power_state.pwrStateResidencyTicks::UNDEFINED  37943103000                       # Cumulative time (in ticks) in various power states (Tick)
system.cpu.mmu.stage2_itb.instHits                  0                       # Inst hits (Count)
system.cpu.mmu.stage2_itb.instMisses                0                       # Inst misses (Count)
system.cpu.mmu.stage2_itb.inserts                   0                       # Number of times an entry is inserted into the TLB (Count)
system.cpu.mmu.stage2_itb.flushTlb                  0                       # Number of times complete TLB was flushed (Count)
system.cpu.mmu.stage2_itb.flushTlbMva               0                       # Number of times TLB was flushed by MVA (Count)
system.cpu.mmu.stage2_itb.flushTlbMvaAsid            0                       # Number of times TLB was flushed by MVA & ASID (Count)
system.cpu.mmu.stage2_itb.flushTlbAsid              0                       # Number of times TLB was flushed by ASID (Count)
system.cpu.mmu.stage2_itb.flushedEntries            0                       # Number of entries that have been flushed from TLB (Count)
system.cpu.mmu.stage2_itb.instAccesses              0                       # Inst accesses (Count)
system.cpu.mmu.stage2_itb.hits                      0                       # Total TLB (inst and data) hits (Count)
system.cpu.mmu.stage2_itb.misses                    0                       # Total TLB (inst and data) misses (Count)
system.cpu.mmu.stage2_itb.accesses                  0                       # Total TLB (inst and data) accesses (Count)
system.cpu.mmu.stage2_itb_walker.walks              0                       # Table walker walks requested (Count)
system.cpu.mmu.stage2_itb_walker.requestOrigin_Requested::Data            0                       # Table walker requests started/completed, data/inst (Count)
system.cpu.mmu.stage2_itb_walker.requestOrigin_Requested::Inst            0                       # Table walker requests started/completed, data/inst (Count)
system.cpu.mmu.stage2_itb_walker.requestOrigin_Requested::total            0                       # Table walker requests started/completed, data/inst (Count)
system.cpu.mmu.stage2_itb_walker.requestOrigin_Completed::Data            0                       # Table walker requests started/completed, data/inst (Count)
system.cpu.mmu.stage2_itb_walker.requestOrigin_Completed::Inst            0                       # Table walker requests started/completed, data/inst (Count)
system.cpu.mmu.stage2_itb_walker.requestOrigin_Completed::total            0                       # Table walker requests started/completed, data/inst (Count)
system.cpu.mmu.stage2_itb_walker.requestOrigin::total            0                       # Table walker requests started/completed, data/inst (Count)
system.cpu.mmu.stage2_itb_walker.power_state.pwrStateResidencyTicks::UNDEFINED  37943103000                       # Cumulative time (in ticks) in various power states (Tick)
system.cpu.power_state.pwrStateResidencyTicks::ON  37943103000                       # Cumulative time (in ticks) in various power states (Tick)
system.cpu.thread_0.numInsts                 10000000                       # Number of Instructions committed (Count)
system.cpu.thread_0.numOps                   10007012                       # Number of Ops committed (Count)
system.cpu.thread_0.numMemRefs                      0                       # Number of Memory References (Count)
system.cpu.workload.numSyscalls                    10                       # Number of system calls (Count)
system.cpu_clk_domain.clock                       500                       # Clock period in ticks (Tick)
system.cpu_voltage_domain.voltage                   1                       # Voltage in Volts (Volt)
system.l2.demandHits::cpu.inst                     54                       # number of demand (read+write) hits (Count)
system.l2.demandHits::cpu.data                     34                       # number of demand (read+write) hits (Count)
system.l2.demandHits::total                        88                       # number of demand (read+write) hits (Count)
system.l2.overallHits::cpu.inst                    54                       # number of overall hits (Count)
system.l2.overallHits::cpu.data                    34                       # number of overall hits (Count)
system.l2.overallHits::total                       88                       # number of overall hits (Count)
system.l2.demandMisses::cpu.inst                  473                       # number of demand (read+write) misses (Count)
system.l2.demandMisses::cpu.data                 2856                       # number of demand (read+write) misses (Count)
system.l2.demandMisses::total                    3329                       # number of demand (read+write) misses (Count)
system.l2.overallMisses::cpu.inst                 473                       # number of overall misses (Count)
system.l2.overallMisses::cpu.data                2856                       # number of overall misses (Count)
system.l2.overallMisses::total                   3329                       # number of overall misses (Count)
system.l2.demandMissLatency::cpu.inst        36504000                       # number of demand (read+write) miss ticks (Tick)
system.l2.demandMissLatency::cpu.data       218252500                       # number of demand (read+write) miss ticks (Tick)
system.l2.demandMissLatency::total          254756500                       # number of demand (read+write) miss ticks (Tick)
system.l2.overallMissLatency::cpu.inst       36504000                       # number of overall miss ticks (Tick)
system.l2.overallMissLatency::cpu.data      218252500                       # number of overall miss ticks (Tick)
system.l2.overallMissLatency::total         254756500                       # number of overall miss ticks (Tick)
system.l2.demandAccesses::cpu.inst                527                       # number of demand (read+write) accesses (Count)
system.l2.demandAccesses::cpu.data               2890                       # number of demand (read+write) accesses (Count)
system.l2.demandAccesses::total                  3417                       # number of demand (read+write) accesses (Count)
system.l2.overallAccesses::cpu.inst               527                       # number of overall (read+write) accesses (Count)
system.l2.overallAccesses::cpu.data              2890                       # number of overall (read+write) accesses (Count)
system.l2.overallAccesses::total                 3417                       # number of overall (read+write) accesses (Count)
system.l2.demandMissRate::cpu.inst           0.897533                       # miss rate for demand accesses (Ratio)
system.l2.demandMissRate::cpu.data           0.988235                       # miss rate for demand accesses (Ratio)
system.l2.demandMissRate::total              0.974246                       # miss rate for demand accesses (Ratio)
system.l2.overallMissRate::cpu.inst          0.897533                       # miss rate for overall accesses (Ratio)
system.l2.overallMissRate::cpu.data          0.988235                       # miss rate for overall accesses (Ratio)
system.l2.overallMissRate::total             0.974246                       # miss rate for overall accesses (Ratio)
system.l2.demandAvgMissLatency::cpu.inst 77175.475687                       # average overall miss latency in ticks ((Tick/Count))
system.l2.demandAvgMissLatency::cpu.data 76418.942577                       # average overall miss latency in ticks ((Tick/Count))
system.l2.demandAvgMissLatency::total    76526.434365                       # average overall miss latency in ticks ((Tick/Count))
system.l2.overallAvgMissLatency::cpu.inst 77175.475687                       # average overall miss latency ((Tick/Count))
system.l2.overallAvgMissLatency::cpu.data 76418.942577                       # average overall miss latency ((Tick/Count))
system.l2.overallAvgMissLatency::total   76526.434365                       # average overall miss latency ((Tick/Count))
system.l2.blockedCycles::no_mshrs                   0                       # number of cycles access was blocked (Cycle)
system.l2.blockedCycles::no_targets                 0                       # number of cycles access was blocked (Cycle)
system.l2.blockedCauses::no_mshrs                   0                       # number of times access was blocked (Count)
system.l2.blockedCauses::no_targets                 0                       # number of times access was blocked (Count)
system.l2.avgBlocked::no_mshrs                    nan                       # average number of cycles each access was blocked ((Cycle/Count))
system.l2.avgBlocked::no_targets                  nan                       # average number of cycles each access was blocked ((Cycle/Count))
system.l2.writebacks::writebacks              2305741                       # number of writebacks (Count)
system.l2.writebacks::total                   2305741                       # number of writebacks (Count)
system.l2.demandMshrMisses::cpu.inst              473                       # number of demand (read+write) MSHR misses (Count)
system.l2.demandMshrMisses::cpu.data             2856                       # number of demand (read+write) MSHR misses (Count)
system.l2.demandMshrMisses::total                3329                       # number of demand (read+write) MSHR misses (Count)
system.l2.overallMshrMisses::cpu.inst             473                       # number of overall MSHR misses (Count)
system.l2.overallMshrMisses::cpu.data            2856                       # number of overall MSHR misses (Count)
system.l2.overallMshrMisses::total               3329                       # number of overall MSHR misses (Count)
system.l2.demandMshrMissLatency::cpu.inst     31774000                       # number of demand (read+write) MSHR miss ticks (Tick)
system.l2.demandMshrMissLatency::cpu.data    189692500                       # number of demand (read+write) MSHR miss ticks (Tick)
system.l2.demandMshrMissLatency::total      221466500                       # number of demand (read+write) MSHR miss ticks (Tick)
system.l2.overallMshrMissLatency::cpu.inst     31774000                       # number of overall MSHR miss ticks (Tick)
system.l2.overallMshrMissLatency::cpu.data    189692500                       # number of overall MSHR miss ticks (Tick)
system.l2.overallMshrMissLatency::total     221466500                       # number of overall MSHR miss ticks (Tick)
system.l2.demandMshrMissRate::cpu.inst       0.897533                       # mshr miss ratio for demand accesses (Ratio)
system.l2.demandMshrMissRate::cpu.data       0.988235                       # mshr miss ratio for demand accesses (Ratio)
system.l2.demandMshrMissRate::total          0.974246                       # mshr miss ratio for demand accesses (Ratio)
system.l2.overallMshrMissRate::cpu.inst      0.897533                       # mshr miss ratio for overall accesses (Ratio)
system.l2.overallMshrMissRate::cpu.data      0.988235                       # mshr miss ratio for overall accesses (Ratio)
system.l2.overallMshrMissRate::total         0.974246                       # mshr miss ratio for overall accesses (Ratio)
system.l2.demandAvgMshrMissLatency::cpu.inst 67175.475687                       # average overall mshr miss latency ((Tick/Count))
system.l2.demandAvgMshrMissLatency::cpu.data 66418.942577                       # average overall mshr miss latency ((Tick/Count))
system.l2.demandAvgMshrMissLatency::total 66526.434365                       # average overall mshr miss latency ((Tick/Count))
system.l2.overallAvgMshrMissLatency::cpu.inst 67175.475687                       # average overall mshr miss latency ((Tick/Count))
system.l2.overallAvgMshrMissLatency::cpu.data 66418.942577                       # average overall mshr miss latency ((Tick/Count))
system.l2.overallAvgMshrMissLatency::total 66526.434365                       # average overall mshr miss latency ((Tick/Count))
system.l2.replacements                        2306322                       # number of replacements (Count)
system.l2.InvalidateReq.hits::cpu.data              1                       # number of InvalidateReq hits (Count)
system.l2.InvalidateReq.hits::total                 1                       # number of InvalidateReq hits (Count)
system.l2.InvalidateReq.misses::cpu.data      2336786                       # number of InvalidateReq misses (Count)
system.l2.InvalidateReq.misses::total         2336786                       # number of InvalidateReq misses (Count)
system.l2.InvalidateReq.accesses::cpu.data      2336787                       # number of InvalidateReq accesses(hits+misses) (Count)
system.l2.InvalidateReq.accesses::total       2336787                       # number of InvalidateReq accesses(hits+misses) (Count)
system.l2.InvalidateReq.missRate::cpu.data     1.000000                       # miss rate for InvalidateReq accesses (Ratio)
system.l2.InvalidateReq.missRate::total      1.000000                       # miss rate for InvalidateReq accesses (Ratio)
system.l2.InvalidateReq.mshrMisses::cpu.data      2336786                       # number of InvalidateReq MSHR misses (Count)
system.l2.InvalidateReq.mshrMisses::total      2336786                       # number of InvalidateReq MSHR misses (Count)
system.l2.InvalidateReq.mshrMissLatency::cpu.data  44456629500                       # number of InvalidateReq MSHR miss ticks (Tick)
system.l2.InvalidateReq.mshrMissLatency::total  44456629500                       # number of InvalidateReq MSHR miss ticks (Tick)
system.l2.InvalidateReq.mshrMissRate::cpu.data     1.000000                       # mshr miss rate for InvalidateReq accesses (Ratio)
system.l2.InvalidateReq.mshrMissRate::total     1.000000                       # mshr miss rate for InvalidateReq accesses (Ratio)
system.l2.InvalidateReq.avgMshrMissLatency::cpu.data 19024.690109                       # average InvalidateReq mshr miss latency ((Tick/Count))
system.l2.InvalidateReq.avgMshrMissLatency::total 19024.690109                       # average InvalidateReq mshr miss latency ((Tick/Count))
system.l2.ReadCleanReq.hits::cpu.inst              54                       # number of ReadCleanReq hits (Count)
system.l2.ReadCleanReq.hits::total                 54                       # number of ReadCleanReq hits (Count)
system.l2.ReadCleanReq.misses::cpu.inst           473                       # number of ReadCleanReq misses (Count)
system.l2.ReadCleanReq.misses::total              473                       # number of ReadCleanReq misses (Count)
system.l2.ReadCleanReq.missLatency::cpu.inst     36504000                       # number of ReadCleanReq miss ticks (Tick)
system.l2.ReadCleanReq.missLatency::total     36504000                       # number of ReadCleanReq miss ticks (Tick)
system.l2.ReadCleanReq.accesses::cpu.inst          527                       # number of ReadCleanReq accesses(hits+misses) (Count)
system.l2.ReadCleanReq.accesses::total            527                       # number of ReadCleanReq accesses(hits+misses) (Count)
system.l2.ReadCleanReq.missRate::cpu.inst     0.897533                       # miss rate for ReadCleanReq accesses (Ratio)
system.l2.ReadCleanReq.missRate::total       0.897533                       # miss rate for ReadCleanReq accesses (Ratio)
system.l2.ReadCleanReq.avgMissLatency::cpu.inst 77175.475687                       # average ReadCleanReq miss latency ((Tick/Count))
system.l2.ReadCleanReq.avgMissLatency::total 77175.475687                       # average ReadCleanReq miss latency ((Tick/Count))
system.l2.ReadCleanReq.mshrMisses::cpu.inst          473                       # number of ReadCleanReq MSHR misses (Count)
system.l2.ReadCleanReq.mshrMisses::total          473                       # number of ReadCleanReq MSHR misses (Count)
system.l2.ReadCleanReq.mshrMissLatency::cpu.inst     31774000                       # number of ReadCleanReq MSHR miss ticks (Tick)
system.l2.ReadCleanReq.mshrMissLatency::total     31774000                       # number of ReadCleanReq MSHR miss ticks (Tick)
system.l2.ReadCleanReq.mshrMissRate::cpu.inst     0.897533                       # mshr miss rate for ReadCleanReq accesses (Ratio)
system.l2.ReadCleanReq.mshrMissRate::total     0.897533                       # mshr miss rate for ReadCleanReq accesses (Ratio)
system.l2.ReadCleanReq.avgMshrMissLatency::cpu.inst 67175.475687                       # average ReadCleanReq mshr miss latency ((Tick/Count))
system.l2.ReadCleanReq.avgMshrMissLatency::total 67175.475687                       # average ReadCleanReq mshr miss latency ((Tick/Count))
system.l2.ReadExReq.hits::cpu.data                 18                       # number of ReadExReq hits (Count)
system.l2.ReadExReq.hits::total                    18                       # number of ReadExReq hits (Count)
system.l2.ReadExReq.misses::cpu.data             2731                       # number of ReadExReq misses (Count)
system.l2.ReadExReq.misses::total                2731                       # number of ReadExReq misses (Count)
system.l2.ReadExReq.missLatency::cpu.data    207975500                       # number of ReadExReq miss ticks (Tick)
system.l2.ReadExReq.missLatency::total      207975500                       # number of ReadExReq miss ticks (Tick)
system.l2.ReadExReq.accesses::cpu.data           2749                       # number of ReadExReq accesses(hits+misses) (Count)
system.l2.ReadExReq.accesses::total              2749                       # number of ReadExReq accesses(hits+misses) (Count)
system.l2.ReadExReq.missRate::cpu.data       0.993452                       # miss rate for ReadExReq accesses (Ratio)
system.l2.ReadExReq.missRate::total          0.993452                       # miss rate for ReadExReq accesses (Ratio)
system.l2.ReadExReq.avgMissLatency::cpu.data 76153.606737                       # average ReadExReq miss latency ((Tick/Count))
system.l2.ReadExReq.avgMissLatency::total 76153.606737                       # average ReadExReq miss latency ((Tick/Count))
system.l2.ReadExReq.mshrMisses::cpu.data         2731                       # number of ReadExReq MSHR misses (Count)
system.l2.ReadExReq.mshrMisses::total            2731                       # number of ReadExReq MSHR misses (Count)
system.l2.ReadExReq.mshrMissLatency::cpu.data    180665500                       # number of ReadExReq MSHR miss ticks (Tick)
system.l2.ReadExReq.mshrMissLatency::total    180665500                       # number of ReadExReq MSHR miss ticks (Tick)
system.l2.ReadExReq.mshrMissRate::cpu.data     0.993452                       # mshr miss rate for ReadExReq accesses (Ratio)
system.l2.ReadExReq.mshrMissRate::total      0.993452                       # mshr miss rate for ReadExReq accesses (Ratio)
system.l2.ReadExReq.avgMshrMissLatency::cpu.data 66153.606737                       # average ReadExReq mshr miss latency ((Tick/Count))
system.l2.ReadExReq.avgMshrMissLatency::total 66153.606737                       # average ReadExReq mshr miss latency ((Tick/Count))
system.l2.ReadSharedReq.hits::cpu.data             16                       # number of ReadSharedReq hits (Count)
system.l2.ReadSharedReq.hits::total                16                       # number of ReadSharedReq hits (Count)
system.l2.ReadSharedReq.misses::cpu.data          125                       # number of ReadSharedReq misses (Count)
system.l2.ReadSharedReq.misses::total             125                       # number of ReadSharedReq misses (Count)
system.l2.ReadSharedReq.missLatency::cpu.data     10277000                       # number of ReadSharedReq miss ticks (Tick)
system.l2.ReadSharedReq.missLatency::total     10277000                       # number of ReadSharedReq miss ticks (Tick)
system.l2.ReadSharedReq.accesses::cpu.data          141                       # number of ReadSharedReq accesses(hits+misses) (Count)
system.l2.ReadSharedReq.accesses::total           141                       # number of ReadSharedReq accesses(hits+misses) (Count)
system.l2.ReadSharedReq.missRate::cpu.data     0.886525                       # miss rate for ReadSharedReq accesses (Ratio)
system.l2.ReadSharedReq.missRate::total      0.886525                       # miss rate for ReadSharedReq accesses (Ratio)
system.l2.ReadSharedReq.avgMissLatency::cpu.data        82216                       # average ReadSharedReq miss latency ((Tick/Count))
system.l2.ReadSharedReq.avgMissLatency::total        82216                       # average ReadSharedReq miss latency ((Tick/Count))
system.l2.ReadSharedReq.mshrMisses::cpu.data          125                       # number of ReadSharedReq MSHR misses (Count)
system.l2.ReadSharedReq.mshrMisses::total          125                       # number of ReadSharedReq MSHR misses (Count)
system.l2.ReadSharedReq.mshrMissLatency::cpu.data      9027000                       # number of ReadSharedReq MSHR miss ticks (Tick)
system.l2.ReadSharedReq.mshrMissLatency::total      9027000                       # number of ReadSharedReq MSHR miss ticks (Tick)
system.l2.ReadSharedReq.mshrMissRate::cpu.data     0.886525                       # mshr miss rate for ReadSharedReq accesses (Ratio)
system.l2.ReadSharedReq.mshrMissRate::total     0.886525                       # mshr miss rate for ReadSharedReq accesses (Ratio)
system.l2.ReadSharedReq.avgMshrMissLatency::cpu.data        72216                       # average ReadSharedReq mshr miss latency ((Tick/Count))
system.l2.ReadSharedReq.avgMshrMissLatency::total        72216                       # average ReadSharedReq mshr miss latency ((Tick/Count))
system.l2.WritebackClean.hits::writebacks          272                       # number of WritebackClean hits (Count)
system.l2.WritebackClean.hits::total              272                       # number of WritebackClean hits (Count)
system.l2.WritebackClean.accesses::writebacks          272                       # number of WritebackClean accesses(hits+misses) (Count)
system.l2.WritebackClean.accesses::total          272                       # number of WritebackClean accesses(hits+misses) (Count)
system.l2.WritebackDirty.hits::writebacks      2338541                       # number of WritebackDirty hits (Count)
system.l2.WritebackDirty.hits::total          2338541                       # number of WritebackDirty hits (Count)
system.l2.WritebackDirty.accesses::writebacks      2338541                       # number of WritebackDirty accesses(hits+misses) (Count)
system.l2.WritebackDirty.accesses::total      2338541                       # number of WritebackDirty accesses(hits+misses) (Count)
system.l2.power_state.pwrStateResidencyTicks::UNDEFINED  37943103000                       # Cumulative time (in ticks) in various power states (Tick)
system.l2.tags.tagsInUse                 32122.914736                       # Average ticks per tags in use ((Tick/Count))
system.l2.tags.totalRefs                      2342340                       # Total number of references to valid blocks. (Count)
system.l2.tags.sampledRefs                    2339091                       # Sample count of references to valid blocks. (Count)
system.l2.tags.avgRefs                       1.001389                       # Average number of references to valid blocks. ((Count/Count))
system.l2.tags.warmupTick                       77000                       # The tick when the warmup percentage was hit. (Tick)
system.l2.tags.occupancies::writebacks   32049.631836                       # Average occupied blocks per tick, per requestor ((Count/Tick))
system.l2.tags.occupancies::cpu.inst        11.671361                       # Average occupied blocks per tick, per requestor ((Count/Tick))
system.l2.tags.occupancies::cpu.data        61.611539                       # Average occupied blocks per tick, per requestor ((Count/Tick))
system.l2.tags.avgOccs::writebacks           0.978077                       # Average percentage of cache occupancy ((Ratio/Tick))
system.l2.tags.avgOccs::cpu.inst             0.000356                       # Average percentage of cache occupancy ((Ratio/Tick))
system.l2.tags.avgOccs::cpu.data             0.001880                       # Average percentage of cache occupancy ((Ratio/Tick))
system.l2.tags.avgOccs::total                0.980314                       # Average percentage of cache occupancy ((Ratio/Tick))
system.l2.tags.occupanciesTaskId::1024          32768                       # Occupied blocks per task id (Count)
system.l2.tags.ageTaskId_1024::0                  626                       # Occupied blocks per task id, per block age (Count)
system.l2.tags.ageTaskId_1024::1                 5624                       # Occupied blocks per task id, per block age (Count)
system.l2.tags.ageTaskId_1024::2                26518                       # Occupied blocks per task id, per block age (Count)
[...]
system.mem_ctrls.dram.perBankWrBursts::12       144128                       # Per bank write bursts (Count)
system.mem_ctrls.dram.perBankWrBursts::13       144063                       # Per bank write bursts (Count)
system.mem_ctrls.dram.perBankWrBursts::14       144108                       # Per bank write bursts (Count)
system.mem_ctrls.dram.perBankWrBursts::15       144123                       # Per bank write bursts (Count)
system.mem_ctrls.dram.totQLat                22095000                       # Total ticks spent queuing (Tick)
system.mem_ctrls.dram.totBusLat              16645000                       # Total ticks spent in databus transfers (Tick)
system.mem_ctrls.dram.totMemAccLat           84513750                       # Total ticks spent from burst creation until serviced by the DRAM (Tick)
system.mem_ctrls.dram.avgQLat                 6637.13                       # Average queueing delay per DRAM burst ((Tick/Count))
system.mem_ctrls.dram.avgBusLat               5000.00                       # Average bus latency per DRAM burst ((Tick/Count))
system.mem_ctrls.dram.avgMemAccLat           25387.13                       # Average memory access latency per DRAM burst ((Tick/Count))
system.mem_ctrls.dram.readRowHits                2784                       # Number of row buffer hits during reads (Count)
system.mem_ctrls.dram.writeRowHits            2156555                       # Number of row buffer hits during writes (Count)
system.mem_ctrls.dram.readRowHitRate            83.63                       # Row buffer hit rate for reads (Ratio)
system.mem_ctrls.dram.writeRowHitRate           93.53                       # Row buffer hit rate for writes (Ratio)
system.mem_ctrls.dram.bytesPerActivate::samples       149708                       # Bytes accessed per row activation (Byte)
system.mem_ctrls.dram.bytesPerActivate::mean   987.105566                       # Bytes accessed per row activation (Byte)
system.mem_ctrls.dram.bytesPerActivate::gmean   955.279737                       # Bytes accessed per row activation (Byte)
system.mem_ctrls.dram.bytesPerActivate::stdev   154.306524                       # Bytes accessed per row activation (Byte)
system.mem_ctrls.dram.bytesPerActivate::0-127         1444      0.96%      0.96% # Bytes accessed per row activation (Byte)
system.mem_ctrls.dram.bytesPerActivate::128-255          826      0.55%      1.52% # Bytes accessed per row activation (Byte)
system.mem_ctrls.dram.bytesPerActivate::256-383         1489      0.99%      2.51% # Bytes accessed per row activation (Byte)
system.mem_ctrls.dram.bytesPerActivate::384-511         1660      1.11%      3.62% # Bytes accessed per row activation (Byte)
system.mem_ctrls.dram.bytesPerActivate::512-639         1414      0.94%      4.56% # Bytes accessed per row activation (Byte)
system.mem_ctrls.dram.bytesPerActivate::640-767         1443      0.96%      5.53% # Bytes accessed per row activation (Byte)
system.mem_ctrls.dram.bytesPerActivate::768-895          728      0.49%      6.01% # Bytes accessed per row activation (Byte)
system.mem_ctrls.dram.bytesPerActivate::896-1023         1556      1.04%      7.05% # Bytes accessed per row activation (Byte)
system.mem_ctrls.dram.bytesPerActivate::1024-1151       139148     92.95%    100.00% # Bytes accessed per row activation (Byte)
system.mem_ctrls.dram.bytesPerActivate::total       149708                       # Bytes accessed per row activation (Byte)
system.mem_ctrls.dram.bytesRead                213056                       # Total bytes read (Byte)
system.mem_ctrls.dram.bytesWritten          147566080                       # Total bytes written (Byte)
system.mem_ctrls.dram.avgRdBW                5.615144                       # Average DRAM read bandwidth in MiBytes/s ((Byte/Second))
system.mem_ctrls.dram.avgWrBW             3889.141065                       # Average DRAM write bandwidth in MiBytes/s ((Byte/Second))
system.mem_ctrls.dram.peakBW                 12800.00                       # Theoretical peak bandwidth in MiByte/s ((Byte/Second))
system.mem_ctrls.dram.busUtil                   30.43                       # Data bus utilization in percentage (Ratio)
system.mem_ctrls.dram.busUtilRead                0.04                       # Data bus utilization in percentage for reads (Ratio)
system.mem_ctrls.dram.busUtilWrite              30.38                       # Data bus utilization in percentage for writes (Ratio)
system.mem_ctrls.dram.pageHitRate               93.52                       # Row buffer hit rate, read and write combined (Ratio)
system.mem_ctrls.dram.power_state.pwrStateResidencyTicks::UNDEFINED  37943103000                       # Cumulative time (in ticks) in various power states (Tick)
system.mem_ctrls.dram.rank0.actEnergy       534300480                       # Energy for activate commands per rank (pJ) (Joule)
system.mem_ctrls.dram.rank0.preEnergy       283987440                       # Energy for precharge commands per rank (pJ) (Joule)
system.mem_ctrls.dram.rank0.readEnergy       10824240                       # Energy for read commands per rank (pJ) (Joule)
system.mem_ctrls.dram.rank0.writeEnergy    6016780800                       # Energy for write commands per rank (pJ) (Joule)
system.mem_ctrls.dram.rank0.refreshEnergy 2995140720.000000                       # Energy for refresh commands per rank (pJ) (Joule)
system.mem_ctrls.dram.rank0.actBackEnergy  10760434350                       # Energy for active background per rank (pJ) (Joule)
system.mem_ctrls.dram.rank0.preBackEnergy   5508733440                       # Energy for precharge background per rank (pJ) (Joule)
system.mem_ctrls.dram.rank0.actPowerDownEnergy            0                       # Energy for active power-down per rank (pJ) (Joule)
system.mem_ctrls.dram.rank0.prePowerDownEnergy            0                       # Energy for precharge power-down per rank (pJ) (Joule)
system.mem_ctrls.dram.rank0.selfRefreshEnergy            0                       # Energy for self refresh per rank (pJ) (Joule)
system.mem_ctrls.dram.rank0.totalEnergy   26110201470                       # Total energy per rank (pJ) (Joule)
system.mem_ctrls.dram.rank0.averagePower   688.140911                       # Core power per rank (mW) (Watt)
system.mem_ctrls.dram.rank0.totalIdleTime            0                       # Total Idle time Per DRAM Rank (Tick)
system.mem_ctrls.dram.rank0.pwrStateTime::IDLE  13975293250                       # Time in different power states (Tick)
system.mem_ctrls.dram.rank0.pwrStateTime::REF   1266980000                       # Time in different power states (Tick)
system.mem_ctrls.dram.rank0.pwrStateTime::SREF            0                       # Time in different power states (Tick)
system.mem_ctrls.dram.rank0.pwrStateTime::PRE_PDN            0                       # Time in different power states (Tick)
system.mem_ctrls.dram.rank0.pwrStateTime::ACT  22700829750                       # Time in different power states (Tick)
system.mem_ctrls.dram.rank0.pwrStateTime::ACT_PDN            0                       # Time in different power states (Tick)
system.mem_ctrls.dram.rank1.actEnergy       534628920                       # Energy for activate commands per rank (pJ) (Joule)
system.mem_ctrls.dram.rank1.preEnergy       284154420                       # Energy for precharge commands per rank (pJ) (Joule)
system.mem_ctrls.dram.rank1.readEnergy       12944820                       # Energy for read commands per rank (pJ) (Joule)
system.mem_ctrls.dram.rank1.writeEnergy    6019077600                       # Energy for write commands per rank (pJ) (Joule)
system.mem_ctrls.dram.rank1.refreshEnergy 2995140720.000000                       # Energy for refresh commands per rank (pJ) (Joule)
system.mem_ctrls.dram.rank1.actBackEnergy  10784967150                       # Energy for active background per rank (pJ) (Joule)
system.mem_ctrls.dram.rank1.preBackEnergy   5488074240                       # Energy for precharge background per rank (pJ) (Joule)
system.mem_ctrls.dram.rank1.actPowerDownEnergy            0                       # Energy for active power-down per rank (pJ) (Joule)
system.mem_ctrls.dram.rank1.prePowerDownEnergy            0                       # Energy for precharge power-down per rank (pJ) (Joule)
system.mem_ctrls.dram.rank1.selfRefreshEnergy            0                       # Energy for self refresh per rank (pJ) (Joule)
system.mem_ctrls.dram.rank1.totalEnergy   26118987870                       # Total energy per rank (pJ) (Joule)
system.mem_ctrls.dram.rank1.averagePower   688.372479                       # Core power per rank (mW) (Watt)
system.mem_ctrls.dram.rank1.totalIdleTime            0                       # Total Idle time Per DRAM Rank (Tick)
system.mem_ctrls.dram.rank1.pwrStateTime::IDLE  13922537000                       # Time in different power states (Tick)
system.mem_ctrls.dram.rank1.pwrStateTime::REF   1266980000                       # Time in different power states (Tick)
system.mem_ctrls.dram.rank1.pwrStateTime::SREF            0                       # Time in different power states (Tick)
system.mem_ctrls.dram.rank1.pwrStateTime::PRE_PDN            0                       # Time in different power states (Tick)
system.mem_ctrls.dram.rank1.pwrStateTime::ACT  22753586000                       # Time in different power states (Tick)
system.mem_ctrls.dram.rank1.pwrStateTime::ACT_PDN            0                       # Time in different power states (Tick)
system.mem_ctrls.power_state.pwrStateResidencyTicks::UNDEFINED  37943103000                       # Cumulative time (in ticks) in various power states (Tick)
system.membus.transDist::ReadResp                 598                       # Transaction distribution (Count)
system.membus.transDist::WritebackDirty       2305739                       # Transaction distribution (Count)
system.membus.transDist::CleanEvict               325                       # Transaction distribution (Count)
system.membus.transDist::ReadExReq               2731                       # Transaction distribution (Count)
system.membus.transDist::ReadExResp              2731                       # Transaction distribution (Count)
system.membus.transDist::ReadSharedReq            598                       # Transaction distribution (Count)
system.membus.transDist::InvalidateReq        2336784                       # Transaction distribution (Count)
system.membus.pktCount_system.l2.mem_side_port::system.mem_ctrls.port      4649506                       # Packet count per connected requestor and responder (Count)
system.membus.pktCount::total                 4649506                       # Packet count per connected requestor and responder (Count)
system.membus.pktSize_system.l2.mem_side_port::system.mem_ctrls.port    147780352                       # Cumulative packet size per connected requestor and responder (Byte)
system.membus.pktSize::total                147780352                       # Cumulative packet size per connected requestor and responder (Byte)
system.membus.snoops                                0                       # Total snoops (Count)
system.membus.snoopTraffic                          0                       # Total snoop traffic (Byte)
system.membus.snoopFanout::samples            2340113                       # Request fanout histogram (Count)
system.membus.snoopFanout::mean                     0                       # Request fanout histogram (Count)
system.membus.snoopFanout::stdev                    0                       # Request fanout histogram (Count)
system.membus.snoopFanout::underflows               0      0.00%      0.00% # Request fanout histogram (Count)
system.membus.snoopFanout::0                  2340113    100.00%    100.00% # Request fanout histogram (Count)
system.membus.snoopFanout::1                        0      0.00%    100.00% # Request fanout histogram (Count)
system.membus.snoopFanout::overflows                0      0.00%    100.00% # Request fanout histogram (Count)
system.membus.snoopFanout::min_value                0                       # Request fanout histogram (Count)
system.membus.snoopFanout::max_value                0                       # Request fanout histogram (Count)
system.membus.snoopFanout::total              2340113                       # Request fanout histogram (Count)
system.membus.power_state.pwrStateResidencyTicks::UNDEFINED  37943103000                       # Cumulative time (in ticks) in various power states (Tick)
system.membus.reqLayer0.occupancy         14684313500                       # Layer occupancy (ticks) (Tick)
system.membus.reqLayer0.utilization               0.4                       # Layer utilization (Ratio)
system.membus.respLayer1.occupancy           17911000                       # Layer occupancy (ticks) (Tick)
system.membus.respLayer1.utilization              0.0                       # Layer utilization (Ratio)
system.membus.snoop_filter.totRequests        4646177                       # Total number of requests made to the snoop filter. (Count)
system.membus.snoop_filter.hitSingleRequests      2306064                       # Number of requests hitting in the snoop filter with a single holder of the requested data. (Count)
system.membus.snoop_filter.hitMultiRequests            0                       # Number of requests hitting in the snoop filter with multiple (>1) holders of the requested data. (Count)
system.membus.snoop_filter.totSnoops                0                       # Total number of snoops made to the snoop filter. (Count)
system.membus.snoop_filter.hitSingleSnoops            0                       # Number of snoops hitting in the snoop filter with a single holder of the requested data. (Count)
system.membus.snoop_filter.hitMultiSnoops            0                       # Number of snoops hitting in the snoop filter with multiple (>1) holders of the requested data. (Count)
system.tol2bus.transDist::ReadResp                668                       # Transaction distribution (Count)
system.tol2bus.transDist::WritebackDirty      4644282                       # Transaction distribution (Count)
system.tol2bus.transDist::WritebackClean          272                       # Transaction distribution (Count)
system.tol2bus.transDist::CleanEvict              691                       # Transaction distribution (Count)
system.tol2bus.transDist::ReadExReq              2749                       # Transaction distribution (Count)
system.tol2bus.transDist::ReadExResp             2749                       # Transaction distribution (Count)
system.tol2bus.transDist::ReadCleanReq            527                       # Transaction distribution (Count)
system.tol2bus.transDist::ReadSharedReq           141                       # Transaction distribution (Count)
system.tol2bus.transDist::InvalidateReq       2336787                       # Transaction distribution (Count)
system.tol2bus.transDist::InvalidateResp      2336785                       # Transaction distribution (Count)
system.tol2bus.pktCount_system.cpu.icache.mem_side_port::system.l2.cpu_side_port         1326                       # Packet count per connected requestor and responder (Count)
system.tol2bus.pktCount_system.cpu.dcache.mem_side_port::system.l2.cpu_side_port      7018003                       # Packet count per connected requestor and responder (Count)
system.tol2bus.pktCount::total                7019329                       # Packet count per connected requestor and responder (Count)
system.tol2bus.pktSize_system.cpu.icache.mem_side_port::system.l2.cpu_side_port        51136                       # Cumulative packet size per connected requestor and responder (Byte)
system.tol2bus.pktSize_system.cpu.dcache.mem_side_port::system.l2.cpu_side_port    149851584                       # Cumulative packet size per connected requestor and responder (Byte)
system.tol2bus.pktSize::total               149902720                       # Cumulative packet size per connected requestor and responder (Byte)
system.tol2bus.snoops                         2306322                       # Total snoops (Count)
system.tol2bus.snoopTraffic                 147567424                       # Total snoop traffic (Byte)
system.tol2bus.snoopFanout::samples           4646526                       # Request fanout histogram (Count)
system.tol2bus.snoopFanout::mean             0.000055                       # Request fanout histogram (Count)
system.tol2bus.snoopFanout::stdev            0.007437                       # Request fanout histogram (Count)
system.tol2bus.snoopFanout::underflows              0      0.00%      0.00% # Request fanout histogram (Count)
system.tol2bus.snoopFanout::0                 4646269     99.99%     99.99% # Request fanout histogram (Count)
system.tol2bus.snoopFanout::1                     257      0.01%    100.00% # Request fanout histogram (Count)
system.tol2bus.snoopFanout::2                       0      0.00%    100.00% # Request fanout histogram (Count)
system.tol2bus.snoopFanout::overflows               0      0.00%    100.00% # Request fanout histogram (Count)
system.tol2bus.snoopFanout::min_value               0                       # Request fanout histogram (Count)
system.tol2bus.snoopFanout::max_value               1                       # Request fanout histogram (Count)
system.tol2bus.snoopFanout::total             4646526                       # Request fanout histogram (Count)
system.tol2bus.power_state.pwrStateResidencyTicks::UNDEFINED  37943103000                       # Cumulative time (in ticks) in various power states (Tick)
system.tol2bus.reqLayer0.occupancy         4678376500                       # Layer occupancy (ticks) (Tick)
system.tol2bus.reqLayer0.utilization              0.1                       # Layer utilization (Ratio)
system.tol2bus.respLayer0.occupancy            790500                       # Layer occupancy (ticks) (Tick)
system.tol2bus.respLayer0.utilization             0.0                       # Layer utilization (Ratio)
system.tol2bus.respLayer1.occupancy        1172727500                       # Layer occupancy (ticks) (Tick)
system.tol2bus.respLayer1.utilization             0.0                       # Layer utilization (Ratio)
system.tol2bus.snoop_filter.totRequests       4679127                       # Total number of requests made to the snoop filter. (Count)
system.tol2bus.snoop_filter.hitSingleRequests      2338923                       # Number of requests hitting in the snoop filter with a single holder of the requested data. (Count)
system.tol2bus.snoop_filter.hitMultiRequests            1                       # Number of requests hitting in the snoop filter with multiple (>1) holders of the requested data. (Count)
system.tol2bus.snoop_filter.totSnoops             256                       # Total number of snoops made to the snoop filter. (Count)
system.tol2bus.snoop_filter.hitSingleSnoops          256                       # Number of snoops hitting in the snoop filter with a single holder of the requested data. (Count)
system.tol2bus.snoop_filter.hitMultiSnoops            0                       # Number of snoops hitting in the snoop filter with multiple (>1) holders of the requested data. (Count)
system.voltage_domain.voltage                       1                       # Voltage in Volts (Volt)
system.workload.inst.arm                            0                       # number of arm instructions executed (Count)
system.workload.inst.quiesce                        0                       # number of quiesce instructions executed (Count)
system.cpu.idleCycles                        48208548                       # Total number of cycles that the object has spent stopped (Unspecified)
system.cpu.tickCycles                        27677658                       # Number of cycles that the object actually ticked (Unspecified)

---------- End Simulation Statistics   ----------
